REMARK SMILES CC1CN(C(=O)c2ccc(Cl)c(S(=O)(=O)NCc3ccco3)c2)CC(C)O1
REMARK SMILES IDX 7 1 8 2 9 3 10 4 11 5 12 6 23 7 5 8 4 9 6 10 24 11 25 12
REMARK SMILES IDX 26 13 27 14 2 15 1 16 3 18 13 20 14 21 15 22 16 23 17 25
REMARK SMILES IDX 18 26 19 27 22 28 20 29 21 30
REMARK H PARENT 16 24
REMARK Flexibility Score: 80.00
ROOT
ATOM      1  C   UNL     1      -0.108   1.077  -0.617  1.00  0.00     0.041 A 
ATOM      2  C   UNL     1       0.506   1.765  -1.664  1.00  0.00     0.015 A 
ATOM      3  C   UNL     1       1.616   1.205  -2.300  1.00  0.00     0.023 A 
ATOM      4  C   UNL     1       2.127  -0.035  -1.888  1.00  0.00     0.061 A 
ATOM      5  Cl  UNL     1       3.507  -0.621  -2.742  1.00  0.00    -0.083 Cl
ATOM      6  C   UNL     1       1.521  -0.703  -0.819  1.00  0.00     0.101 A 
ATOM      7  C   UNL     1       0.405  -0.145  -0.176  1.00  0.00     0.037 A 
ENDROOT
BRANCH   1   8
ATOM      8  C   UNL     1      -1.261   1.698   0.067  1.00  0.00     0.254 C 
ATOM      9  N   UNL     1      -2.487   1.045   0.055  1.00  0.00    -0.333 N 
ATOM     10  O   UNL     1      -1.066   2.781   0.612  1.00  0.00    -0.269 OA
BRANCH   9  11
ATOM     11  C   UNL     1      -2.768  -0.243  -0.592  1.00  0.00     0.151 C 
BRANCH  11  12
ATOM     12  C   UNL     1      -4.207  -0.298  -1.140  1.00  0.00     0.135 C 
ATOM     13  C   UNL     1      -4.547  -1.695  -1.641  1.00  0.00     0.040 C 
BRANCH  12  14
ATOM     14  O   UNL     1      -5.157   0.044  -0.118  1.00  0.00    -0.372 OA
BRANCH  14  15
ATOM     15  C   UNL     1      -4.930   1.382   0.361  1.00  0.00     0.135 CG0
ATOM     16  C   UNL     1      -6.008   1.696   1.389  1.00  0.00     0.040 C 
ATOM     17  G   UNL     1      -3.528   1.504   0.979  1.00  0.00     0.000 G0
ENDBRANCH  14  15
ENDBRANCH  12  14
ENDBRANCH  11  12
ENDBRANCH   9  11
BRANCH   9  18
ATOM     18  C   UNL     1      -3.528   1.504   0.979  1.00  0.00     0.151 CG0
ATOM     19  G   UNL     1      -4.930   1.382   0.361  1.00  0.00     0.000 G0
ENDBRANCH   9  18
ENDBRANCH   1   8
BRANCH   6  20
ATOM     20  S   UNL     1       2.109  -2.272  -0.245  1.00  0.00     0.242 S 
ATOM     21  O   UNL     1       2.150  -3.164  -1.380  1.00  0.00    -0.207 OA
ATOM     22  O   UNL     1       1.371  -2.619   0.951  1.00  0.00    -0.207 OA
BRANCH  20  23
ATOM     23  N   UNL     1       3.676  -1.950   0.214  1.00  0.00    -0.204 NA
ATOM     24  H   UNL     1       4.369  -2.594  -0.165  1.00  0.00     0.141 HD
BRANCH  23  25
ATOM     25  C   UNL     1       3.915  -1.391   1.539  1.00  0.00     0.174 C 
BRANCH  25  26
ATOM     26  C   UNL     1       5.267  -0.777   1.533  1.00  0.00     0.118 A 
ATOM     27  C   UNL     1       5.837   0.262   0.823  1.00  0.00     0.047 A 
ATOM     28  O   UNL     1       6.188  -1.317   2.384  1.00  0.00    -0.468 OA
ATOM     29  C   UNL     1       7.176   0.365   1.269  1.00  0.00     0.042 A 
ATOM     30  C   UNL     1       7.339  -0.615   2.220  1.00  0.00     0.195 A 
ENDBRANCH  25  26
ENDBRANCH  23  25
ENDBRANCH  20  23
ENDBRANCH   6  20
TORSDOF 5
