REMARK SMILES Cc1ccc([N+](=O)[O-])c2c1C(N1CC(C)OC(C)C1)C(C)(C)O2
REMARK SMILES IDX 19 1 12 2 11 3 1 4 2 5 3 6 10 7 4 8 9 9 5 10 23 11 20 12
REMARK SMILES IDX 21 13 22 14 6 15 7 16 8 17 13 18 17 20 18 21 16 22 14 23
REMARK SMILES IDX 15 24
REMARK H PARENT
REMARK Flexibility Score: 80.00
ROOT
ATOM      1  C   UNL     1       1.609  -1.353  -0.986  1.00  0.00     0.117 C 
ENDROOT
BRANCH   1   2
ATOM      2  N   UNL     1       0.946  -0.076  -0.715  1.00  0.00    -0.287 NA
BRANCH   2   3
ATOM      3  C   UNL     1      -0.470  -0.005  -1.113  1.00  0.00     0.135 C 
ATOM      4  C   UNL     1      -1.410  -2.861   0.027  1.00  0.00     0.045 C 
ATOM      5  C   UNL     1      -1.895  -1.529   0.512  1.00  0.00    -0.042 A 
ATOM      6  C   UNL     1      -2.818  -1.495   1.578  1.00  0.00     0.011 A 
ATOM      7  C   UNL     1      -1.473  -0.313  -0.033  1.00  0.00     0.025 A 
ATOM      8  C   UNL     1      -3.334  -0.285   2.059  1.00  0.00     0.090 A 
ATOM      9  C   UNL     1      -2.033   0.889   0.413  1.00  0.00     0.202 A 
ATOM     10  C   UNL     1      -2.933   0.912   1.463  1.00  0.00     0.311 A 
ATOM     11  O   UNL     1      -1.625   1.988  -0.301  1.00  0.00    -0.479 OA
ATOM     12  C   UNL     1      -0.980   1.437  -1.483  1.00  0.00     0.124 C 
ATOM     13  C   UNL     1       0.111   2.415  -1.928  1.00  0.00     0.058 C 
ATOM     14  C   UNL     1      -2.045   1.374  -2.602  1.00  0.00     0.058 C 
BRANCH  10  15
ATOM     15  N   UNL     1      -3.478   2.163   1.946  1.00  0.00     0.066 N 
ATOM     16  O   UNL     1      -4.708   2.218   2.092  1.00  0.00    -0.258 OA
ATOM     17  O   UNL     1      -2.683   3.070   2.225  1.00  0.00    -0.258 OA
ENDBRANCH  10  15
ENDBRANCH   2   3
BRANCH   2  18
ATOM     18  C   UNL     1       1.355   0.510   0.573  1.00  0.00     0.117 CG0
ATOM     19  G   UNL     1       2.050  -0.509   1.502  1.00  0.00     0.000 G0
ENDBRANCH   2  18
ENDBRANCH   1   2
BRANCH   1  20
ATOM     20  C   UNL     1       3.076  -1.387  -0.497  1.00  0.00     0.129 C 
ATOM     21  C   UNL     1       3.989  -0.462  -1.297  1.00  0.00     0.040 C 
BRANCH  20  22
ATOM     22  O   UNL     1       3.224  -1.075   0.899  1.00  0.00    -0.373 OA
BRANCH  22  23
ATOM     23  C   UNL     1       2.050  -0.509   1.502  1.00  0.00     0.129 CG0
ATOM     24  C   UNL     1       2.479   0.145   2.809  1.00  0.00     0.040 C 
ATOM     25  G   UNL     1       1.355   0.510   0.573  1.00  0.00     0.000 G0
ENDBRANCH  22  23
ENDBRANCH  20  22
ENDBRANCH   1  20
TORSDOF 2
