REMARK SMILES COc1cc(CN2CC(C)OC(C)C2)cc2[nH]c(=O)c3c(c12)NCCC3
REMARK SMILES IDX 6 1 5 2 3 3 4 4 22 5 16 6 15 7 2 8 1 9 21 10 20 11 23 13
REMARK SMILES IDX 24 15 25 16 26 18 17 20 18 21 19 23 7 25 8 26 14 28 12 29
REMARK SMILES IDX 13 30 11 31 9 32 10 33
REMARK H PARENT 23 14 17 22
REMARK Flexibility Score: 240.00
ROOT
ATOM      1  C   UNL     1       2.425   0.421  -0.023  1.00  0.00     0.120 C 
ENDROOT
BRANCH   1   2
ATOM      2  C   UNL     1       0.929   0.540  -0.227  1.00  0.00    -0.028 A 
ATOM      3  C   UNL     1      -1.019   0.435  -1.686  1.00  0.00     0.130 A 
ATOM      4  C   UNL     1       0.361   0.283  -1.481  1.00  0.00     0.052 A 
ATOM      5  C   UNL     1      -1.880   0.815  -0.638  1.00  0.00     0.064 A 
ATOM      6  C   UNL     1      -1.291   1.071   0.613  1.00  0.00     0.054 A 
ATOM      7  C   UNL     1       0.089   0.945   0.818  1.00  0.00     0.032 A 
BRANCH   3   8
ATOM      8  O   UNL     1      -1.520   0.127  -2.931  1.00  0.00    -0.496 OA
ATOM      9  C   UNL     1      -1.163   1.137  -3.880  1.00  0.00     0.278 C 
ENDBRANCH   3   8
BRANCH   5  10
ATOM     10  C   UNL     1      -3.355   0.976  -0.756  1.00  0.00     0.056 C 
ATOM     11  C   UNL     1      -4.081   1.355   0.316  1.00  0.00     0.041 CG1
ATOM     12  G   UNL     1      -3.440   1.610   1.631  1.00  0.00     0.000 G1
BRANCH  10  13
ATOM     13  N   UNL     1      -3.975   0.720  -1.973  1.00  0.00    -0.384 N 
ATOM     14  H   UNL     1      -3.413   0.114  -2.574  1.00  0.00     0.160 HD
BRANCH  13  15
ATOM     15  C   UNL     1      -5.410   0.513  -2.061  1.00  0.00     0.113 C 
BRANCH  15  16
ATOM     16  C   UNL     1      -6.111   1.551  -1.193  1.00  0.00     0.026 CG2
ATOM     17  G   UNL     1      -5.577   1.522   0.244  1.00  0.00     0.000 G2
ENDBRANCH  15  16
ENDBRANCH  13  15
ENDBRANCH  10  13
BRANCH  11  18
ATOM     18  C   UNL     1      -5.577   1.522   0.244  1.00  0.00     0.045 CG2
ATOM     19  G   UNL     1      -6.111   1.551  -1.193  1.00  0.00     0.000 G2
ENDBRANCH  11  18
ENDBRANCH   5  10
BRANCH   6  20
ATOM     20  N   UNL     1      -2.086   1.459   1.697  1.00  0.00    -0.321 N 
ATOM     21  C   UNL     1      -3.440   1.610   1.631  1.00  0.00     0.253 CG1
ATOM     22  H   UNL     1      -1.669   1.631   2.601  1.00  0.00     0.170 HD
ATOM     23  O   UNL     1      -4.092   1.935   2.619  1.00  0.00    -0.269 OA
ATOM     24  G   UNL     1      -4.081   1.355   0.316  1.00  0.00     0.000 G1
ENDBRANCH   6  20
ENDBRANCH   1   2
BRANCH   1  25
ATOM     25  N   UNL     1       2.792  -0.367   1.161  1.00  0.00    -0.294 NA
BRANCH  25  26
ATOM     26  C   UNL     1       4.197  -0.133   1.533  1.00  0.00     0.116 CG0
ATOM     27  G   UNL     1       4.792  -1.223   2.444  1.00  0.00     0.000 G0
ENDBRANCH  25  26
BRANCH  25  28
ATOM     28  C   UNL     1       2.497  -1.807   1.027  1.00  0.00     0.116 C 
BRANCH  28  29
ATOM     29  C   UNL     1       3.713  -2.753   0.893  1.00  0.00     0.129 C 
ATOM     30  C   UNL     1       4.325  -2.745  -0.505  1.00  0.00     0.040 C 
BRANCH  29  31
ATOM     31  O   UNL     1       4.753  -2.532   1.857  1.00  0.00    -0.373 OA
BRANCH  31  32
ATOM     32  C   UNL     1       4.792  -1.223   2.444  1.00  0.00     0.129 CG0
ATOM     33  C   UNL     1       4.159  -1.271   3.834  1.00  0.00     0.040 C 
ATOM     34  G   UNL     1       4.197  -0.133   1.533  1.00  0.00     0.000 G0
ENDBRANCH  31  32
ENDBRANCH  29  31
ENDBRANCH  28  29
ENDBRANCH  25  28
ENDBRANCH   1  25
TORSDOF 3
