REMARK SMILES N#Cc1ccc(CN2CC3CN(CCNS(=O)(=O)c4ccc(F)cc4)CC(C2)O3)cc1
REMARK SMILES IDX 10 1 29 3 27 4 28 6 8 7 7 8 6 9 3 10 4 11 31 12 5 13 30 14
REMARK SMILES IDX 2 15 1 16 9 17 11 19 12 20 13 21 14 22 15 23 16 25 17 26
REMARK SMILES IDX 18 27 19 28 20 29 25 30 21 31 24 32 22 33 23 34 26 35
REMARK H PARENT 15 24
REMARK Flexibility Score: 170.00
ROOT
ATOM      1  C   UNL     1       0.780   1.196   0.449  1.00  0.00     0.146 CG0
ATOM      2  G   UNL     1       2.050   1.988   0.527  1.00  0.00     0.000 G0
ENDROOT
BRANCH   1   3
ATOM      3  O   UNL     1       0.892   0.279   1.565  1.00  0.00    -0.370 OA
BRANCH   3   4
ATOM      4  C   UNL     1       1.283  -0.904   0.883  1.00  0.00     0.146 CG1
ATOM      5  G   UNL     1       0.039  -1.179  -0.077  1.00  0.00     0.000 G1
BRANCH   4   6
ATOM      6  C   UNL     1       2.687  -0.496   0.235  1.00  0.00     0.118 C 
BRANCH   6   7
ATOM      7  N   UNL     1       3.160   0.936   0.516  1.00  0.00    -0.294 NA
BRANCH   7   8
ATOM      8  C   UNL     1       4.280   1.348  -0.334  1.00  0.00     0.120 C 
BRANCH   8   9
ATOM      9  C   UNL     1       5.532   0.522  -0.119  1.00  0.00    -0.034 A 
ATOM     10  C   UNL     1       7.869  -0.988   0.287  1.00  0.00     0.052 A 
ATOM     11  C   UNL     1       7.295  -0.908  -0.986  1.00  0.00     0.020 A 
ATOM     12  C   UNL     1       7.277  -0.311   1.357  1.00  0.00     0.020 A 
ATOM     13  C   UNL     1       6.134  -0.156  -1.188  1.00  0.00     0.006 A 
ATOM     14  C   UNL     1       6.118   0.441   1.154  1.00  0.00     0.006 A 
BRANCH  10  15
ATOM     15  C   UNL     1       9.058  -1.761   0.492  1.00  0.00     0.099 C 
ATOM     16  N   UNL     1      10.020  -2.390   0.653  1.00  0.00    -0.192 NA
ENDBRANCH  10  15
ENDBRANCH   8   9
ENDBRANCH   7   8
BRANCH   7  17
ATOM     17  C   UNL     1       2.050   1.988   0.527  1.00  0.00     0.118 CG0
ATOM     18  G   UNL     1       0.780   1.196   0.449  1.00  0.00     0.000 G0
ENDBRANCH   7  17
ENDBRANCH   6   7
ENDBRANCH   4   6
ENDBRANCH   3   4
ENDBRANCH   1   3
BRANCH   1  19
ATOM     19  C   UNL     1      -0.699   1.268   0.226  1.00  0.00     0.118 C 
BRANCH  19  20
ATOM     20  N   UNL     1      -1.164  -0.205   0.023  1.00  0.00    -0.297 NA
BRANCH  20  21
ATOM     21  C   UNL     1      -2.013  -0.605   1.182  1.00  0.00     0.101 C 
BRANCH  21  22
ATOM     22  C   UNL     1      -3.519  -0.401   0.913  1.00  0.00     0.114 C 
BRANCH  22  23
ATOM     23  N   UNL     1      -3.787   0.946   0.393  1.00  0.00    -0.210 NA
ATOM     24  H   UNL     1      -3.251   1.198  -0.437  1.00  0.00     0.141 HD
BRANCH  23  25
ATOM     25  S   UNL     1      -5.342   1.557   0.424  1.00  0.00     0.240 S 
ATOM     26  O   UNL     1      -5.316   2.801  -0.312  1.00  0.00    -0.207 OA
ATOM     27  O   UNL     1      -5.829   1.482   1.784  1.00  0.00    -0.207 OA
BRANCH  25  28
ATOM     28  C   UNL     1      -6.245   0.375  -0.551  1.00  0.00     0.082 A 
ATOM     29  C   UNL     1      -6.163   0.436  -1.947  1.00  0.00     0.025 A 
ATOM     30  C   UNL     1      -7.053  -0.579   0.080  1.00  0.00     0.025 A 
ATOM     31  C   UNL     1      -6.879  -0.482  -2.716  1.00  0.00     0.040 A 
ATOM     32  C   UNL     1      -7.766  -1.493  -0.697  1.00  0.00     0.040 A 
ATOM     33  C   UNL     1      -7.670  -1.438  -2.085  1.00  0.00     0.123 A 
ATOM     34  F   UNL     1      -8.355  -2.318  -2.827  1.00  0.00    -0.207 F 
ENDBRANCH  25  28
ENDBRANCH  23  25
ENDBRANCH  22  23
ENDBRANCH  21  22
ENDBRANCH  20  21
BRANCH  20  35
ATOM     35  C   UNL     1       0.039  -1.179  -0.077  1.00  0.00     0.118 CG1
ATOM     36  G   UNL     1       1.283  -0.904   0.883  1.00  0.00     0.000 G1
ENDBRANCH  20  35
ENDBRANCH  19  20
ENDBRANCH   1  19
TORSDOF 8
