REMARK SMILES COc1cc(N)c(Cl)cc1C(=O)NCC1CN(Cc2ccccc2)CCO1
REMARK SMILES IDX 15 1 14 2 13 3 11 4 12 5 10 7 3 8 4 9 5 10 9 11 7 12 8 13
REMARK SMILES IDX 2 14 1 15 6 16 16 19 17 20 18 21 19 22 20 23 24 24 21 25
REMARK SMILES IDX 23 26 22 27 25 28 27 30 26 31
REMARK H PARENT 13 6 6 17 6 18
REMARK Flexibility Score: 90.00
ROOT
ATOM      1  C   UNL     1       0.538  -1.791   1.214  1.00  0.00     0.151 C 
ENDROOT
BRANCH   1   2
ATOM      2  C   UNL     1      -0.727  -2.539   0.774  1.00  0.00     0.149 C 
BRANCH   2   3
ATOM      3  N   UNL     1      -1.706  -1.653   0.171  1.00  0.00    -0.349 N 
ATOM      4  C   UNL     1      -2.678  -2.102  -0.689  1.00  0.00     0.255 C 
ATOM      5  O   UNL     1      -2.670  -3.241  -1.147  1.00  0.00    -0.269 OA
ATOM      6  H   UNL     1      -1.870  -0.771   0.651  1.00  0.00     0.163 HD
BRANCH   4   7
ATOM      7  C   UNL     1      -3.766  -1.143  -1.076  1.00  0.00     0.083 A 
ATOM      8  C   UNL     1      -3.970   0.126  -0.492  1.00  0.00     0.133 A 
ATOM      9  C   UNL     1      -5.021   0.934  -0.957  1.00  0.00     0.074 A 
ATOM     10  C   UNL     1      -5.857   0.521  -2.004  1.00  0.00     0.054 A 
ATOM     11  C   UNL     1      -4.639  -1.581  -2.087  1.00  0.00     0.040 A 
ATOM     12  C   UNL     1      -5.680  -0.767  -2.528  1.00  0.00     0.065 A 
ATOM     13  Cl  UNL     1      -6.727  -1.364  -3.769  1.00  0.00    -0.082 Cl
BRANCH   8  14
ATOM     14  O   UNL     1      -3.123   0.506   0.518  1.00  0.00    -0.496 OA
ATOM     15  C   UNL     1      -3.402   1.715   1.216  1.00  0.00     0.278 C 
ENDBRANCH   8  14
BRANCH  10  16
ATOM     16  N   UNL     1      -6.966   1.316  -2.346  1.00  0.00    -0.397 N 
ATOM     17  H   UNL     1      -7.371   1.060  -3.245  1.00  0.00     0.156 HD
ATOM     18  H   UNL     1      -6.821   2.316  -2.252  1.00  0.00     0.156 HD
ENDBRANCH  10  16
ENDBRANCH   4   7
ENDBRANCH   2   3
ENDBRANCH   1   2
BRANCH   1  19
ATOM     19  C   UNL     1       1.317  -1.235   0.001  1.00  0.00     0.118 C 
BRANCH  19  20
ATOM     20  N   UNL     1       2.527  -0.498   0.436  1.00  0.00    -0.294 NA
BRANCH  20  21
ATOM     21  C   UNL     1       3.228   0.058  -0.734  1.00  0.00     0.120 C 
BRANCH  21  22
ATOM     22  C   UNL     1       4.586   0.637  -0.399  1.00  0.00    -0.034 A 
ATOM     23  C   UNL     1       4.885   1.975  -0.693  1.00  0.00     0.005 A 
ATOM     24  C   UNL     1       5.575  -0.163   0.194  1.00  0.00     0.005 A 
ATOM     25  C   UNL     1       6.143   2.502  -0.393  1.00  0.00     0.000 A 
ATOM     26  C   UNL     1       6.831   0.365   0.493  1.00  0.00     0.000 A 
ATOM     27  C   UNL     1       7.115   1.698   0.200  1.00  0.00     0.000 A 
ENDBRANCH  21  22
ENDBRANCH  20  21
BRANCH  20  28
ATOM     28  C   UNL     1       2.119   0.562   1.383  1.00  0.00     0.113 CG0
ATOM     29  G   UNL     1       1.324  -0.023   2.561  1.00  0.00     0.000 G0
ENDBRANCH  20  28
ENDBRANCH  19  20
ENDBRANCH   1  19
BRANCH   1  30
ATOM     30  O   UNL     1       0.157  -0.722   2.108  1.00  0.00    -0.374 OA
BRANCH  30  31
ATOM     31  C   UNL     1       1.324  -0.023   2.561  1.00  0.00     0.176 CG0
ATOM     32  G   UNL     1       2.119   0.562   1.383  1.00  0.00     0.000 G0
ENDBRANCH  30  31
ENDBRANCH   1  30
TORSDOF 7
