REMARK SMILES Cc1ccc(NS(=O)(=O)c2ccc(C(=O)N3CC(C)OC(C)C3)cc2)cc1
REMARK SMILES IDX 14 1 15 2 16 3 13 4 10 5 11 6 25 7 12 8 24 9 7 10 8 11 9 12
REMARK SMILES IDX 6 13 5 15 1 16 2 17 3 18 27 19 4 20 26 21 17 22 18 23 19 24
REMARK SMILES IDX 20 25 21 26 22 27 23 29
REMARK H PARENT 6 14
REMARK Flexibility Score: 80.00
ROOT
ATOM      1  C   UNL     1      -1.806   1.242  -1.985  1.00  0.00     0.254 C 
ATOM      2  O   UNL     1      -2.219   1.618  -3.078  1.00  0.00    -0.269 OA
ATOM      3  N   UNL     1      -2.439   0.279  -1.211  1.00  0.00    -0.333 N 
ENDROOT
BRANCH   1   4
ATOM      4  C   UNL     1      -0.560   1.842  -1.466  1.00  0.00     0.040 A 
ATOM      5  C   UNL     1       1.813   2.876  -0.471  1.00  0.00     0.087 A 
ATOM      6  C   UNL     1       0.622   3.088   0.234  1.00  0.00     0.023 A 
ATOM      7  C   UNL     1       1.817   2.196  -1.695  1.00  0.00     0.023 A 
ATOM      8  C   UNL     1      -0.570   2.565  -0.265  1.00  0.00     0.015 A 
ATOM      9  C   UNL     1       0.622   1.681  -2.196  1.00  0.00     0.015 A 
BRANCH   5  10
ATOM     10  S   UNL     1       3.345   3.478   0.210  1.00  0.00     0.261 S 
ATOM     11  O   UNL     1       3.066   4.753   0.836  1.00  0.00    -0.201 OA
ATOM     12  O   UNL     1       4.375   3.342  -0.798  1.00  0.00    -0.201 OA
BRANCH  10  13
ATOM     13  N   UNL     1       3.651   2.392   1.467  1.00  0.00    -0.280 N 
ATOM     14  H   UNL     1       3.330   2.744   2.367  1.00  0.00     0.180 HD
BRANCH  13  15
ATOM     15  C   UNL     1       3.568   0.992   1.225  1.00  0.00     0.049 A 
ATOM     16  C   UNL     1       3.152  -3.227   0.469  1.00  0.00     0.044 C 
ATOM     17  C   UNL     1       3.281  -1.752   0.722  1.00  0.00    -0.051 A 
ATOM     18  C   UNL     1       4.239  -0.999   0.032  1.00  0.00     0.005 A 
ATOM     19  C   UNL     1       2.489  -1.124   1.691  1.00  0.00     0.005 A 
ATOM     20  C   UNL     1       4.380   0.368   0.280  1.00  0.00     0.027 A 
ATOM     21  C   UNL     1       2.630   0.244   1.939  1.00  0.00     0.027 A 
ENDBRANCH  13  15
ENDBRANCH  10  13
ENDBRANCH   5  10
ENDBRANCH   1   4
BRANCH   3  22
ATOM     22  C   UNL     1      -1.842  -0.399  -0.053  1.00  0.00     0.151 C 
BRANCH  22  23
ATOM     23  C   UNL     1      -2.348  -1.847   0.059  1.00  0.00     0.135 C 
ATOM     24  C   UNL     1      -1.738  -2.550   1.263  1.00  0.00     0.040 C 
BRANCH  23  25
ATOM     25  O   UNL     1      -3.777  -1.927   0.187  1.00  0.00    -0.372 OA
BRANCH  25  26
ATOM     26  C   UNL     1      -4.498  -0.894  -0.512  1.00  0.00     0.135 CG0
ATOM     27  C   UNL     1      -5.813  -1.493  -0.987  1.00  0.00     0.040 C 
ATOM     28  G   UNL     1      -3.708  -0.279  -1.679  1.00  0.00     0.000 G0
ENDBRANCH  25  26
ENDBRANCH  23  25
ENDBRANCH  22  23
ENDBRANCH   3  22
BRANCH   3  29
ATOM     29  C   UNL     1      -3.708  -0.279  -1.679  1.00  0.00     0.151 CG0
ATOM     30  G   UNL     1      -4.498  -0.894  -0.512  1.00  0.00     0.000 G0
ENDBRANCH   3  29
TORSDOF 4
