REMARK SMILES Cc1nn(C)cc1-c1cc(C(N)=O)nc2cc(CN3C[C@@H](C)O[C@@H](C(F)(F)F)C3)ccc12
REMARK SMILES IDX 20 1 19 2 18 3 17 4 8 5 9 6 32 7 10 8 15 9 31 10 14 11 16 12
REMARK SMILES IDX 30 13 7 14 1 15 2 16 3 17 4 18 6 19 5 20 11 21 12 22 13 23
REMARK SMILES IDX 29 26 21 28 22 29 23 30 24 31 25 33 26 34 27 35 28 36
REMARK H PARENT 12 24 12 25
REMARK Flexibility Score: 80.00
ROOT
ATOM      1  C   UNL     1       4.532  -0.040   1.442  1.00  0.00     0.116 C 
ENDROOT
BRANCH   1   2
ATOM      2  N   UNL     1       3.188  -0.024   0.826  1.00  0.00    -0.294 NA
BRANCH   2   3
ATOM      3  C   UNL     1       2.150   0.370   1.789  1.00  0.00     0.120 C 
BRANCH   3   4
ATOM      4  C   UNL     1       0.745   0.164   1.266  1.00  0.00    -0.032 A 
ATOM      5  C   UNL     1      -3.167  -0.563  -0.214  1.00  0.00    -0.003 A 
ATOM      6  C   UNL     1      -3.505  -1.868  -0.569  1.00  0.00     0.043 A 
ATOM      7  C   UNL     1      -1.872  -0.274   0.288  1.00  0.00     0.008 A 
ATOM      8  C   UNL     1      -2.540  -2.844  -0.422  1.00  0.00     0.129 A 
ATOM      9  C   UNL     1      -0.967  -1.354   0.390  1.00  0.00     0.072 A 
ATOM     10  C   UNL     1      -1.442   1.012   0.697  1.00  0.00     0.011 A 
ATOM     11  N   UNL     1      -1.285  -2.610   0.045  1.00  0.00    -0.243 NA
ATOM     12  C   UNL     1       0.313  -1.113   0.872  1.00  0.00     0.034 A 
ATOM     13  C   UNL     1      -0.151   1.228   1.179  1.00  0.00     0.006 A 
BRANCH   5  14
ATOM     14  C   UNL     1      -4.170   0.468  -0.392  1.00  0.00     0.023 A 
ATOM     15  C   UNL     1      -3.348   1.846  -2.456  1.00  0.00     0.069 C 
ATOM     16  C   UNL     1      -4.273   1.516  -1.344  1.00  0.00     0.067 A 
ATOM     17  N   UNL     1      -5.368   2.260  -1.136  1.00  0.00    -0.178 NA
ATOM     18  N   UNL     1      -5.972   1.669  -0.090  1.00  0.00    -0.275 N 
ATOM     19  C   UNL     1      -5.292   0.592   0.396  1.00  0.00     0.117 A 
ATOM     20  C   UNL     1      -7.220   2.202   0.401  1.00  0.00     0.173 C 
ENDBRANCH   5  14
BRANCH   8  21
ATOM     21  C   UNL     1      -2.854  -4.259  -0.793  1.00  0.00     0.267 C 
ATOM     22  N   UNL     1      -1.826  -5.147  -0.629  1.00  0.00    -0.364 N 
ATOM     23  O   UNL     1      -3.949  -4.607  -1.216  1.00  0.00    -0.268 OA
ATOM     24  H   UNL     1      -0.924  -4.812  -0.306  1.00  0.00     0.160 HD
ATOM     25  H   UNL     1      -1.951  -6.114  -0.889  1.00  0.00     0.160 HD
ENDBRANCH   8  21
ENDBRANCH   3   4
ENDBRANCH   2   3
BRANCH   2  26
ATOM     26  C   UNL     1       3.168   0.802  -0.396  1.00  0.00     0.126 CG0
ATOM     27  G   UNL     1       4.444   0.682  -1.252  1.00  0.00     0.000 G0
ENDBRANCH   2  26
ENDBRANCH   1   2
BRANCH   1  28
ATOM     28  C   UNL     1       5.471   1.061   0.909  1.00  0.00     0.130 C 
ATOM     29  C   UNL     1       6.848   0.966   1.554  1.00  0.00     0.040 C 
BRANCH  28  30
ATOM     30  O   UNL     1       5.656   0.968  -0.510  1.00  0.00    -0.363 OA
BRANCH  30  31
ATOM     31  C   UNL     1       4.444   0.682  -1.252  1.00  0.00     0.237 CG0
ATOM     32  G   UNL     1       3.168   0.802  -0.396  1.00  0.00     0.000 G0
BRANCH  31  33
ATOM     33  C   UNL     1       4.521  -0.662  -1.985  1.00  0.00     0.415 C 
ATOM     34  F   UNL     1       4.652  -1.720  -1.157  1.00  0.00    -0.168 F 
ATOM     35  F   UNL     1       5.576  -0.687  -2.837  1.00  0.00    -0.168 F 
ATOM     36  F   UNL     1       3.412  -0.864  -2.738  1.00  0.00    -0.168 F 
ENDBRANCH  31  33
ENDBRANCH  30  31
ENDBRANCH  28  30
ENDBRANCH   1  28
TORSDOF 5
