REMARK SMILES CC1OC2(CCN(CCc3ccccc3)CC2)CN(Cc2ccccc2)C1=O
REMARK SMILES IDX 17 1 4 2 3 3 2 4 1 5 5 7 18 9 19 10 20 11 21 12 22 13 26 14
REMARK SMILES IDX 23 15 25 16 24 17 27 18 28 19 16 21 7 22 6 23 8 25 9 26
REMARK SMILES IDX 10 27 11 28 15 29 12 30 14 31 13 32
REMARK H PARENT
REMARK Flexibility Score: 180.00
ROOT
ATOM      1  C   UNL     1      -0.074   0.965   0.788  1.00  0.00     0.053 C 
ENDROOT
BRANCH   1   2
ATOM      2  C   UNL     1      -0.868   0.109  -0.207  1.00  0.00     0.089 C 
BRANCH   2   3
ATOM      3  O   UNL     1      -0.931   0.866  -1.431  1.00  0.00    -0.360 OA
BRANCH   3   4
ATOM      4  C   UNL     1      -2.005   0.537  -2.306  1.00  0.00     0.205 CG0
ATOM      5  C   UNL     1      -1.416   0.312  -3.695  1.00  0.00     0.049 C 
ATOM      6  G   UNL     1      -3.013  -0.592  -1.952  1.00  0.00     0.000 G0
ENDBRANCH   3   4
ENDBRANCH   2   3
BRANCH   2   7
ATOM      7  C   UNL     1      -0.143  -1.237  -0.455  1.00  0.00     0.053 CG1
ATOM      8  G   UNL     1       1.250  -1.306   0.182  1.00  0.00     0.000 G1
ENDBRANCH   2   7
BRANCH   2   9
ATOM      9  C   UNL     1      -2.298  -0.103   0.339  1.00  0.00     0.155 C 
BRANCH   9  10
ATOM     10  N   UNL     1      -3.109  -0.871  -0.596  1.00  0.00    -0.333 N 
BRANCH  10  11
ATOM     11  C   UNL     1      -4.186  -1.709  -0.087  1.00  0.00     0.155 C 
BRANCH  11  12
ATOM     12  C   UNL     1      -5.327  -0.893   0.472  1.00  0.00    -0.029 A 
ATOM     13  C   UNL     1      -6.224  -0.249  -0.392  1.00  0.00     0.005 A 
ATOM     14  C   UNL     1      -5.494  -0.747   1.856  1.00  0.00     0.005 A 
ATOM     15  C   UNL     1      -7.270   0.521   0.118  1.00  0.00     0.000 A 
ATOM     16  C   UNL     1      -6.542   0.024   2.365  1.00  0.00     0.000 A 
ATOM     17  C   UNL     1      -7.429   0.656   1.496  1.00  0.00     0.000 A 
ENDBRANCH  11  12
ENDBRANCH  10  11
BRANCH  10  18
ATOM     18  C   UNL     1      -3.013  -0.592  -1.952  1.00  0.00     0.251 CG0
ATOM     19  O   UNL     1      -3.709  -1.150  -2.799  1.00  0.00    -0.272 OA
ATOM     20  G   UNL     1      -2.005   0.537  -2.306  1.00  0.00     0.000 G0
ENDBRANCH  10  18
ENDBRANCH   9  10
ENDBRANCH   2   9
ENDBRANCH   1   2
BRANCH   1  21
ATOM     21  C   UNL     1       1.395   1.120   0.376  1.00  0.00     0.087 C 
BRANCH  21  22
ATOM     22  N   UNL     1       2.016  -0.108  -0.140  1.00  0.00    -0.303 NA
BRANCH  22  23
ATOM     23  C   UNL     1       1.250  -1.306   0.182  1.00  0.00     0.087 CG1
ATOM     24  G   UNL     1      -0.143  -1.237  -0.455  1.00  0.00     0.000 G1
ENDBRANCH  22  23
BRANCH  22  25
ATOM     25  C   UNL     1       3.432  -0.238   0.237  1.00  0.00     0.089 C 
BRANCH  25  26
ATOM     26  C   UNL     1       4.316   0.871  -0.360  1.00  0.00     0.051 C 
BRANCH  26  27
ATOM     27  C   UNL     1       5.771   0.669  -0.006  1.00  0.00    -0.047 A 
ATOM     28  C   UNL     1       6.608  -0.082  -0.843  1.00  0.00     0.004 A 
ATOM     29  C   UNL     1       6.296   1.205   1.178  1.00  0.00     0.004 A 
ATOM     30  C   UNL     1       7.946  -0.285  -0.505  1.00  0.00     0.000 A 
ATOM     31  C   UNL     1       7.635   1.000   1.514  1.00  0.00     0.000 A 
ATOM     32  C   UNL     1       8.460   0.256   0.672  1.00  0.00     0.000 A 
ENDBRANCH  26  27
ENDBRANCH  25  26
ENDBRANCH  22  25
ENDBRANCH  21  22
ENDBRANCH   1  21
TORSDOF 5
