REMARK SMILES Cc1ccc(C(=O)N2C[C@H](C)OC[C@H]2Cc2cccc(-n3nccn3)c2)c(-n2nccn2)c1
REMARK SMILES IDX 14 1 8 2 6 3 7 4 5 5 1 6 2 7 3 8 33 9 4 10 27 11 28 12 29 13
REMARK SMILES IDX 32 14 30 15 31 16 9 17 13 19 12 20 10 21 11 22 15 24 16 25
REMARK SMILES IDX 17 26 26 27 18 28 20 29 19 30 21 31 22 32 25 33 23 34 24 35
REMARK H PARENT
REMARK Flexibility Score: 90.00
ROOT
ATOM      1  C   UNL     1       0.769  -0.155  -0.990  1.00  0.00     0.115 C 
ENDROOT
BRANCH   1   2
ATOM      2  N   UNL     1      -0.700   0.028  -0.900  1.00  0.00    -0.330 N 
BRANCH   2   3
ATOM      3  C   UNL     1      -1.243   0.638   0.231  1.00  0.00     0.256 C 
ATOM      4  O   UNL     1      -0.583   1.043   1.184  1.00  0.00    -0.269 OA
BRANCH   3   5
ATOM      5  C   UNL     1      -2.687   0.961   0.225  1.00  0.00     0.067 A 
ATOM      6  C   UNL     1      -6.749   2.415   0.198  1.00  0.00     0.044 C 
ATOM      7  C   UNL     1      -5.329   1.928   0.219  1.00  0.00    -0.049 A 
ATOM      8  C   UNL     1      -4.386   2.459  -0.665  1.00  0.00     0.004 A 
ATOM      9  C   UNL     1      -4.946   0.899   1.092  1.00  0.00     0.034 A 
ATOM     10  C   UNL     1      -3.072   1.991  -0.652  1.00  0.00     0.016 A 
ATOM     11  C   UNL     1      -3.625   0.402   1.103  1.00  0.00     0.099 A 
BRANCH  11  12
ATOM     12  N   UNL     1      -3.311  -0.666   1.984  1.00  0.00    -0.151 N 
ATOM     13  N   UNL     1      -4.215  -1.118   2.908  1.00  0.00    -0.157 NA
ATOM     14  N   UNL     1      -2.164  -1.386   1.908  1.00  0.00    -0.157 NA
ATOM     15  C   UNL     1      -3.546  -2.106   3.503  1.00  0.00     0.157 A 
ATOM     16  C   UNL     1      -2.300  -2.265   2.900  1.00  0.00     0.157 A 
ENDBRANCH  11  12
ENDBRANCH   3   5
ENDBRANCH   2   3
BRANCH   2  17
ATOM     17  C   UNL     1      -1.494  -0.718  -1.880  1.00  0.00     0.152 CG0
ATOM     18  G   UNL     1      -0.961  -2.150  -2.085  1.00  0.00     0.000 G0
ENDBRANCH   2  17
ENDBRANCH   1   2
BRANCH   1  19
ATOM     19  C   UNL     1       1.141  -0.983  -2.247  1.00  0.00     0.186 C 
BRANCH  19  20
ATOM     20  O   UNL     1       0.449  -2.231  -2.337  1.00  0.00    -0.375 OA
BRANCH  20  21
ATOM     21  C   UNL     1      -0.961  -2.150  -2.085  1.00  0.00     0.134 CG0
ATOM     22  C   UNL     1      -1.261  -3.060  -0.900  1.00  0.00     0.040 C 
ATOM     23  G   UNL     1      -1.494  -0.718  -1.880  1.00  0.00     0.000 G0
ENDBRANCH  20  21
ENDBRANCH  19  20
ENDBRANCH   1  19
BRANCH   1  24
ATOM     24  C   UNL     1       1.510   1.206  -1.028  1.00  0.00     0.063 C 
BRANCH  24  25
ATOM     25  C   UNL     1       3.018   1.092  -1.017  1.00  0.00    -0.044 A 
ATOM     26  C   UNL     1       3.769   1.446  -2.146  1.00  0.00     0.004 A 
ATOM     27  C   UNL     1       3.684   0.628   0.128  1.00  0.00     0.034 A 
ATOM     28  C   UNL     1       5.159   1.328  -2.140  1.00  0.00     0.003 A 
ATOM     29  C   UNL     1       5.083   0.507   0.136  1.00  0.00     0.086 A 
ATOM     30  C   UNL     1       5.818   0.859  -1.004  1.00  0.00     0.030 A 
BRANCH  29  31
ATOM     31  N   UNL     1       5.751   0.028   1.292  1.00  0.00    -0.152 N 
ATOM     32  N   UNL     1       5.082  -0.341   2.421  1.00  0.00    -0.157 NA
ATOM     33  N   UNL     1       7.109  -0.104   1.346  1.00  0.00    -0.157 NA
ATOM     34  C   UNL     1       6.072  -0.724   3.228  1.00  0.00     0.157 A 
ATOM     35  C   UNL     1       7.299  -0.581   2.578  1.00  0.00     0.157 A 
ENDBRANCH  29  31
ENDBRANCH  24  25
ENDBRANCH   1  24
TORSDOF 6
