REMARK SMILES CC1CN(C(=O)c2ccc(CN3C(=O)CNC3=O)cc2)CCO1
REMARK SMILES IDX 4 1 21 2 22 3 23 4 2 5 1 6 3 8 5 10 6 11 7 12 8 13 20 14
REMARK SMILES IDX 9 15 19 16 10 17 11 18 12 19 13 20 17 21 14 22 15 23 16 24
REMARK SMILES IDX 18 25
REMARK H PARENT 16 26
REMARK Flexibility Score: 80.00
ROOT
ATOM      1  N   UNL     1      -2.605  -0.199  -0.064  1.00  0.00    -0.334 N 
ENDROOT
BRANCH   1   2
ATOM      2  C   UNL     1      -1.959   0.898   0.667  1.00  0.00     0.148 C 
BRANCH   2   3
ATOM      3  C   UNL     1      -2.852   2.143   0.687  1.00  0.00     0.182 C 
BRANCH   3   4
ATOM      4  O   UNL     1      -4.140   1.917   1.276  1.00  0.00    -0.375 OA
BRANCH   4   5
ATOM      5  C   UNL     1      -4.640   0.577   1.105  1.00  0.00     0.134 CG0
ATOM      6  C   UNL     1      -6.158   0.657   1.042  1.00  0.00     0.040 C 
ATOM      7  G   UNL     1      -4.065  -0.131  -0.133  1.00  0.00     0.000 G0
ENDBRANCH   4   5
ENDBRANCH   3   4
ENDBRANCH   2   3
ENDBRANCH   1   2
BRANCH   1   8
ATOM      8  C   UNL     1      -4.065  -0.131  -0.133  1.00  0.00     0.151 CG0
ATOM      9  G   UNL     1      -4.640   0.577   1.105  1.00  0.00     0.000 G0
ENDBRANCH   1   8
BRANCH   1  10
ATOM     10  C   UNL     1      -1.947  -1.127  -0.862  1.00  0.00     0.254 C 
ATOM     11  O   UNL     1      -2.528  -1.843  -1.675  1.00  0.00    -0.269 OA
BRANCH  10  12
ATOM     12  C   UNL     1      -0.478  -1.267  -0.738  1.00  0.00     0.040 A 
ATOM     13  C   UNL     1       0.119  -1.502   0.504  1.00  0.00     0.014 A 
ATOM     14  C   UNL     1       0.303  -1.212  -1.895  1.00  0.00     0.014 A 
ATOM     15  C   UNL     1       1.505  -1.645   0.591  1.00  0.00     0.006 A 
ATOM     16  C   UNL     1       1.688  -1.356  -1.806  1.00  0.00     0.006 A 
ATOM     17  C   UNL     1       2.301  -1.579  -0.563  1.00  0.00    -0.028 A 
BRANCH  17  18
ATOM     18  C   UNL     1       3.804  -1.715  -0.464  1.00  0.00     0.166 C 
BRANCH  18  19
ATOM     19  N   UNL     1       4.441  -0.436  -0.263  1.00  0.00    -0.258 N 
ATOM     20  C   UNL     1       4.862   0.392  -1.263  1.00  0.00     0.250 C 
ATOM     21  C   UNL     1       4.666   0.129   0.954  1.00  0.00     0.324 C 
ATOM     22  O   UNL     1       4.797   0.182  -2.466  1.00  0.00    -0.272 OA
ATOM     23  C   UNL     1       5.442   1.649  -0.633  1.00  0.00     0.218 C 
ATOM     24  N   UNL     1       5.266   1.353   0.760  1.00  0.00    -0.329 N 
ATOM     25  O   UNL     1       4.400  -0.331   2.052  1.00  0.00    -0.248 OA
ATOM     26  H   UNL     1       5.512   1.949   1.540  1.00  0.00     0.165 HD
ENDBRANCH  18  19
ENDBRANCH  17  18
ENDBRANCH  10  12
ENDBRANCH   1  10
TORSDOF 4
