REMARK SMILES COc1ccc(-c2cc(C(N)=O)c3[nH]c4ccc(C(=O)N5C[C@@H]6C[C@H]5CO6)cc4c3c2)cc1F
REMARK SMILES IDX 7 1 8 2 9 3 13 4 14 5 15 6 16 7 17 8 18 9 28 10 29 11 30 12
REMARK SMILES IDX 31 13 6 15 3 16 4 17 33 18 5 19 32 20 34 21 2 22 1 23 10 24
REMARK SMILES IDX 11 25 12 26 19 29 20 30 21 31 22 32 25 33 23 34 24 35 26 36
REMARK SMILES IDX 27 37
REMARK H PARENT 14 14 11 27 11 28
REMARK Flexibility Score: inf
ROOT
ATOM      1  C   UNL     1       3.033  -0.803  -0.073  1.00  0.00    -0.017 A 
ATOM      2  C   UNL     1       3.197  -2.189  -0.209  1.00  0.00     0.024 A 
ATOM      3  C   UNL     1       2.131  -3.027  -0.570  1.00  0.00     0.064 A 
ATOM      4  C   UNL     1       0.866  -2.447  -0.752  1.00  0.00     0.059 A 
ATOM      5  N   UNL     1      -0.358  -3.015  -1.028  1.00  0.00    -0.354 N 
ATOM      6  C   UNL     1      -1.337  -2.057  -1.134  1.00  0.00     0.047 A 
ATOM      7  C   UNL     1      -2.699  -2.191  -1.430  1.00  0.00     0.027 A 
ATOM      8  C   UNL     1      -3.469  -1.025  -1.468  1.00  0.00     0.016 A 
ATOM      9  C   UNL     1      -2.890   0.218  -1.202  1.00  0.00     0.040 A 
ATOM     10  C   UNL     1      -1.521   0.339  -0.929  1.00  0.00     0.024 A 
ATOM     11  C   UNL     1      -0.729  -0.826  -0.887  1.00  0.00     0.008 A 
ATOM     12  C   UNL     1       0.656  -1.075  -0.627  1.00  0.00     0.009 A 
ATOM     13  C   UNL     1       1.755  -0.251  -0.296  1.00  0.00     0.019 A 
ATOM     14  H   UNL     1      -0.508  -4.010  -1.132  1.00  0.00     0.167 HD
ENDROOT
BRANCH   1  15
ATOM     15  C   UNL     1       4.169   0.060   0.290  1.00  0.00    -0.015 A 
ATOM     16  C   UNL     1       6.352   1.730   1.000  1.00  0.00     0.154 A 
ATOM     17  C   UNL     1       5.164   1.776   1.729  1.00  0.00     0.050 A 
ATOM     18  C   UNL     1       6.436   0.847  -0.080  1.00  0.00     0.165 A 
ATOM     19  C   UNL     1       4.087   0.950   1.376  1.00  0.00     0.013 A 
ATOM     20  C   UNL     1       5.368   0.023  -0.434  1.00  0.00     0.052 A 
ATOM     21  F   UNL     1       7.562   0.778  -0.806  1.00  0.00    -0.203 F 
BRANCH  16  22
ATOM     22  O   UNL     1       7.468   2.483   1.243  1.00  0.00    -0.494 OA
ATOM     23  C   UNL     1       7.417   3.383   2.342  1.00  0.00     0.278 C 
ENDBRANCH  16  22
ENDBRANCH   1  15
BRANCH   3  24
ATOM     24  C   UNL     1       2.368  -4.477  -0.727  1.00  0.00     0.250 C 
ATOM     25  N   UNL     1       1.678  -5.103  -1.731  1.00  0.00    -0.366 N 
ATOM     26  O   UNL     1       3.174  -5.080  -0.034  1.00  0.00    -0.269 OA
ATOM     27  H   UNL     1       1.404  -4.559  -2.540  1.00  0.00     0.159 HD
ATOM     28  H   UNL     1       2.010  -6.041  -1.929  1.00  0.00     0.159 HD
ENDBRANCH   3  24
BRANCH   9  29
ATOM     29  C   UNL     1      -3.706   1.449  -1.249  1.00  0.00     0.254 C 
ATOM     30  O   UNL     1      -3.386   2.336  -2.034  1.00  0.00    -0.269 OA
BRANCH  29  31
ATOM     31  N   UNL     1      -4.776   1.548  -0.394  1.00  0.00    -0.331 N 
ATOM     32  C   UNL     1      -5.664   2.709  -0.388  1.00  0.00     0.152 C 
ATOM     33  C   UNL     1      -5.159   0.700   0.746  1.00  0.00     0.114 C 
ATOM     34  C   UNL     1      -6.546   2.394   0.838  1.00  0.00     0.140 C 
ATOM     35  C   UNL     1      -5.545   1.745   1.785  1.00  0.00     0.061 C 
ATOM     36  C   UNL     1      -6.549   0.121   0.448  1.00  0.00     0.185 C 
ATOM     37  O   UNL     1      -7.429   1.284   0.506  1.00  0.00    -0.374 OA
ENDBRANCH  29  31
ENDBRANCH   9  29
TORSDOF 5
