REMARK SMILES COc1cc(C(=O)N2CCOC(CCN3CCC4(CC3)c3ccccc3C[S+]4[O-])(c3ccc(Cl)c(Cl)c3)C2)cc(OC)c1OC
REMARK SMILES IDX 13 1 12 2 38 3 8 4 6 5 7 6 5 7 3 8 4 9 43 10 40 11 39 12
REMARK SMILES IDX 2 13 1 14 44 15 45 16 41 17 42 18 9 19 11 21 10 22 30 24
REMARK SMILES IDX 31 25 37 26 32 27 35 28 33 29 36 30 34 31 14 32 15 33 16 34
REMARK SMILES IDX 17 35 18 36 21 37 28 38 22 39 26 40 27 41 29 42 23 43 25 44
REMARK SMILES IDX 24 45 19 46 20 48
REMARK H PARENT
REMARK Flexibility Score: 170.00
ROOT
ATOM      1  C   UNL     1       0.214   0.049  -0.975  1.00  0.00     0.058 C 
ENDROOT
BRANCH   1   2
ATOM      2  C   UNL     1      -0.635  -1.177  -1.431  1.00  0.00     0.112 C 
BRANCH   2   3
ATOM      3  C   UNL     1      -2.159  -0.826  -1.378  1.00  0.00     0.160 C 
BRANCH   3   4
ATOM      4  N   UNL     1      -2.599   0.065  -2.459  1.00  0.00    -0.333 N 
BRANCH   4   5
ATOM      5  C   UNL     1      -3.661   0.959  -2.376  1.00  0.00     0.254 C 
ATOM      6  O   UNL     1      -4.038   1.661  -3.310  1.00  0.00    -0.269 OA
BRANCH   5   7
ATOM      7  C   UNL     1      -4.387   1.088  -1.098  1.00  0.00     0.047 A 
ATOM      8  C   UNL     1      -5.044   2.444   0.768  1.00  0.00     0.165 A 
ATOM      9  C   UNL     1      -4.323   2.301  -0.413  1.00  0.00     0.064 A 
ATOM     10  C   UNL     1      -5.790   1.372   1.277  1.00  0.00     0.203 A 
ATOM     11  C   UNL     1      -5.882   0.161   0.568  1.00  0.00     0.165 A 
ATOM     12  C   UNL     1      -5.180   0.028  -0.632  1.00  0.00     0.064 A 
BRANCH   8  13
ATOM     13  O   UNL     1      -4.978   3.628   1.458  1.00  0.00    -0.493 OA
ATOM     14  C   UNL     1      -5.899   4.566   0.894  1.00  0.00     0.278 C 
ENDBRANCH   8  13
BRANCH  10  15
ATOM     15  O   UNL     1      -6.510   1.547   2.436  1.00  0.00    -0.490 OA
ATOM     16  C   UNL     1      -5.719   1.154   3.557  1.00  0.00     0.278 C 
ENDBRANCH  10  15
BRANCH  11  17
ATOM     17  O   UNL     1      -6.667  -0.811   1.131  1.00  0.00    -0.493 OA
ATOM     18  C   UNL     1      -6.824  -2.030   0.415  1.00  0.00     0.278 C 
ENDBRANCH  11  17
ENDBRANCH   5   7
ENDBRANCH   4   5
BRANCH   4  19
ATOM     19  C   UNL     1      -2.131  -0.314  -3.789  1.00  0.00     0.148 CG0
ATOM     20  G   UNL     1      -0.639  -0.617  -3.792  1.00  0.00     0.000 G0
ENDBRANCH   4  19
ENDBRANCH   3   4
ENDBRANCH   2   3
BRANCH   2  21
ATOM     21  O   UNL     1      -0.284  -1.568  -2.782  1.00  0.00    -0.367 OA
BRANCH  21  22
ATOM     22  C   UNL     1      -0.639  -0.617  -3.792  1.00  0.00     0.183 CG0
ATOM     23  G   UNL     1      -2.131  -0.314  -3.789  1.00  0.00     0.000 G0
ENDBRANCH  21  22
ENDBRANCH   2  21
BRANCH   2  24
ATOM     24  C   UNL     1      -0.411  -2.389  -0.502  1.00  0.00    -0.013 A 
ATOM     25  C   UNL     1       0.076  -3.612  -0.993  1.00  0.00     0.008 A 
ATOM     26  C   UNL     1      -0.676  -2.299   0.879  1.00  0.00     0.028 A 
ATOM     27  C   UNL     1       0.305  -4.696  -0.139  1.00  0.00     0.022 A 
ATOM     28  C   UNL     1      -0.443  -3.380   1.737  1.00  0.00     0.060 A 
ATOM     29  C   UNL     1       0.049  -4.583   1.226  1.00  0.00     0.059 A 
ATOM     30  Cl  UNL     1      -0.778  -3.149   3.415  1.00  0.00    -0.083 Cl
ATOM     31  Cl  UNL     1       0.357  -5.957   2.224  1.00  0.00    -0.083 Cl
ENDBRANCH   2  24
ENDBRANCH   1   2
BRANCH   1  32
ATOM     32  C   UNL     1       1.740  -0.100  -1.146  1.00  0.00     0.088 C 
BRANCH  32  33
ATOM     33  N   UNL     1       2.372  -1.023  -0.195  1.00  0.00    -0.303 NA
BRANCH  33  34
ATOM     34  C   UNL     1       2.495  -0.511   1.172  1.00  0.00     0.090 C 
BRANCH  34  35
ATOM     35  C   UNL     1       3.584   0.550   1.348  1.00  0.00     0.083 C 
BRANCH  35  36
ATOM     36  C   UNL     1       4.947   0.110   0.774  1.00  0.00     0.153 C 
ATOM     37  C   UNL     1       5.917   1.277   0.806  1.00  0.00     0.015 A 
ATOM     38  S   UNL     1       5.682  -1.183   1.946  1.00  0.00    -0.038 S 
ATOM     39  C   UNL     1       5.879   2.381  -0.051  1.00  0.00     0.009 A 
ATOM     40  C   UNL     1       6.886   1.221   1.816  1.00  0.00     0.009 A 
ATOM     41  C   UNL     1       6.834   0.021   2.698  1.00  0.00     0.313 C 
ATOM     42  O   UNL     1       6.594  -2.244   1.048  1.00  0.00    -0.615 OA
ATOM     43  C   UNL     1       6.811   3.411   0.102  1.00  0.00     0.001 A 
ATOM     44  C   UNL     1       7.812   2.252   1.975  1.00  0.00     0.009 A 
ATOM     45  C   UNL     1       7.773   3.348   1.112  1.00  0.00     0.000 A 
BRANCH  36  46
ATOM     46  C   UNL     1       4.782  -0.500  -0.630  1.00  0.00     0.083 CG1
ATOM     47  G   UNL     1       3.661  -1.539  -0.678  1.00  0.00     0.000 G1
ENDBRANCH  36  46
ENDBRANCH  35  36
ENDBRANCH  34  35
ENDBRANCH  33  34
BRANCH  33  48
ATOM     48  C   UNL     1       3.661  -1.539  -0.678  1.00  0.00     0.090 CG1
ATOM     49  G   UNL     1       4.782  -0.500  -0.630  1.00  0.00     0.000 G1
ENDBRANCH  33  48
ENDBRANCH  32  33
ENDBRANCH   1  32
TORSDOF 9
