REMARK SMILES Cc1nsc(-c2cc(C(N)=O)nc3cc(CN4C[C@@H](C)O[C@@H](C(F)(F)F)C4)ccc23)n1
REMARK SMILES IDX 18 1 17 2 16 3 15 4 6 5 7 6 30 7 8 8 13 9 29 10 12 11 14 12
REMARK SMILES IDX 28 13 5 14 1 15 2 16 3 17 31 18 4 19 9 20 10 21 11 22 27 25
REMARK SMILES IDX 19 27 20 28 21 29 22 30 23 32 24 33 25 34 26 35
REMARK H PARENT 10 23 10 24
REMARK Flexibility Score: 80.00
ROOT
ATOM      1  C   UNL     1      -4.032   0.520   1.640  1.00  0.00     0.116 C 
ENDROOT
BRANCH   1   2
ATOM      2  N   UNL     1      -2.777   0.337   0.892  1.00  0.00    -0.294 NA
BRANCH   2   3
ATOM      3  C   UNL     1      -1.804  -0.439   1.673  1.00  0.00     0.120 C 
BRANCH   3   4
ATOM      4  C   UNL     1      -0.397  -0.349   1.120  1.00  0.00    -0.032 A 
ATOM      5  C   UNL     1       3.578  -0.228  -0.388  1.00  0.00     0.024 A 
ATOM      6  C   UNL     1       4.214  -1.449  -0.630  1.00  0.00     0.046 A 
ATOM      7  C   UNL     1       2.252  -0.220   0.123  1.00  0.00     0.011 A 
ATOM      8  C   UNL     1       3.515  -2.610  -0.368  1.00  0.00     0.129 A 
ATOM      9  C   UNL     1       1.636  -1.471   0.351  1.00  0.00     0.072 A 
ATOM     10  C   UNL     1       1.511   0.953   0.409  1.00  0.00     0.011 A 
ATOM     11  N   UNL     1       2.245  -2.641   0.112  1.00  0.00    -0.243 NA
ATOM     12  C   UNL     1       0.338  -1.511   0.843  1.00  0.00     0.034 A 
ATOM     13  C   UNL     1       0.209   0.888   0.902  1.00  0.00     0.006 A 
BRANCH   5  14
ATOM     14  C   UNL     1       4.312   1.013  -0.645  1.00  0.00     0.144 A 
ATOM     15  C   UNL     1       5.696   4.180   0.337  1.00  0.00     0.091 C 
ATOM     16  C   UNL     1       5.270   2.978  -0.416  1.00  0.00     0.139 A 
ATOM     17  N   UNL     1       5.571   2.852  -1.711  1.00  0.00    -0.176 NA
ATOM     18  N   UNL     1       4.556   1.972   0.225  1.00  0.00    -0.220 NA
ATOM     19  S   UNL     1       4.940   1.387  -2.204  1.00  0.00    -0.014 S 
ENDBRANCH   5  14
BRANCH   8  20
ATOM     20  C   UNL     1       4.163  -3.936  -0.617  1.00  0.00     0.267 C 
ATOM     21  N   UNL     1       3.397  -5.029  -0.320  1.00  0.00    -0.364 N 
ATOM     22  O   UNL     1       5.300  -4.040  -1.058  1.00  0.00    -0.268 OA
ATOM     23  H   UNL     1       3.770  -5.955  -0.464  1.00  0.00     0.160 HD
ATOM     24  H   UNL     1       2.458  -4.901   0.039  1.00  0.00     0.160 HD
ENDBRANCH   8  20
ENDBRANCH   3   4
ENDBRANCH   2   3
BRANCH   2  25
ATOM     25  C   UNL     1      -3.030  -0.221  -0.457  1.00  0.00     0.126 CG0
ATOM     26  G   UNL     1      -4.472  -0.720  -0.677  1.00  0.00     0.000 G0
ENDBRANCH   2  25
ENDBRANCH   1   2
BRANCH   1  27
ATOM     27  C   UNL     1      -5.164   1.099   0.762  1.00  0.00     0.130 C 
ATOM     28  C   UNL     1      -4.889   2.533   0.317  1.00  0.00     0.040 C 
BRANCH  27  29
ATOM     29  O   UNL     1      -5.443   0.315  -0.409  1.00  0.00    -0.363 OA
BRANCH  29  30
ATOM     30  C   UNL     1      -4.472  -0.720  -0.677  1.00  0.00     0.237 CG0
ATOM     31  G   UNL     1      -3.030  -0.221  -0.457  1.00  0.00     0.000 G0
BRANCH  30  32
ATOM     32  C   UNL     1      -4.611  -1.253  -2.105  1.00  0.00     0.415 C 
ATOM     33  F   UNL     1      -3.748  -2.277  -2.317  1.00  0.00    -0.168 F 
ATOM     34  F   UNL     1      -4.351  -0.308  -3.034  1.00  0.00    -0.168 F 
ATOM     35  F   UNL     1      -5.854  -1.734  -2.338  1.00  0.00    -0.168 F 
ENDBRANCH  30  32
ENDBRANCH  29  30
ENDBRANCH  27  29
ENDBRANCH   1  27
TORSDOF 5
