REMARK SMILES Nc1ncc(-c2ccc(-c3ccccc3C(=O)N3CCOC(CO)C3)cc2F)cn1
REMARK SMILES IDX 16 1 17 2 15 3 10 4 11 5 12 6 14 7 13 8 9 9 6 10 7 11 27 12
REMARK SMILES IDX 8 13 26 14 28 15 5 16 2 17 3 18 30 19 4 20 29 21 1 22 18 25
REMARK SMILES IDX 19 26 25 28 22 29 21 30 20 31 23 33 24 34
REMARK H PARENT 1 23 1 24 24 35
REMARK Flexibility Score: 90.00
ROOT
ATOM      1  C   UNL     1      -1.730  -0.604  -1.880  1.00  0.00     0.254 C 
ATOM      2  O   UNL     1      -1.386  -0.068  -2.929  1.00  0.00    -0.269 OA
ENDROOT
BRANCH   1   3
ATOM      3  C   UNL     1      -1.528  -2.061  -1.753  1.00  0.00     0.047 A 
ATOM      4  C   UNL     1      -0.361  -2.592  -1.167  1.00  0.00    -0.006 A 
ATOM      5  C   UNL     1      -0.261  -3.993  -1.085  1.00  0.00     0.009 A 
ATOM      6  C   UNL     1      -1.276  -4.824  -1.574  1.00  0.00     0.001 A 
ATOM      7  C   UNL     1      -2.541  -2.890  -2.254  1.00  0.00     0.014 A 
ATOM      8  C   UNL     1      -2.413  -4.273  -2.160  1.00  0.00     0.001 A 
BRANCH   4   9
ATOM      9  C   UNL     1       0.728  -1.752  -0.638  1.00  0.00    -0.015 A 
ATOM     10  C   UNL     1       2.833  -0.129   0.405  1.00  0.00     0.021 A 
ATOM     11  C   UNL     1       2.102  -0.995   1.235  1.00  0.00     0.012 A 
ATOM     12  C   UNL     1       2.486  -0.106  -0.954  1.00  0.00     0.131 A 
ATOM     13  C   UNL     1       1.070  -1.793   0.722  1.00  0.00     0.009 A 
ATOM     14  C   UNL     1       1.459  -0.897  -1.471  1.00  0.00     0.048 A 
ATOM     15  F   UNL     1       3.144   0.701  -1.801  1.00  0.00    -0.206 F 
BRANCH  10  16
ATOM     16  C   UNL     1       3.915   0.706   0.942  1.00  0.00     0.021 A 
ATOM     17  C   UNL     1       5.940   2.229   1.974  1.00  0.00     0.219 A 
ATOM     18  N   UNL     1       6.158   1.614   0.811  1.00  0.00    -0.221 NA
ATOM     19  N   UNL     1       4.795   2.177   2.657  1.00  0.00    -0.221 NA
ATOM     20  C   UNL     1       5.142   0.865   0.324  1.00  0.00     0.125 A 
ATOM     21  C   UNL     1       3.813   1.414   2.126  1.00  0.00     0.125 A 
BRANCH  17  22
ATOM     22  N   UNL     1       6.954   3.011   2.483  1.00  0.00    -0.368 N 
ATOM     23  H   UNL     1       6.562   3.730   3.074  1.00  0.00     0.159 HD
ATOM     24  H   UNL     1       7.558   3.308   1.730  1.00  0.00     0.159 HD
ENDBRANCH  17  22
ENDBRANCH  10  16
ENDBRANCH   4   9
ENDBRANCH   1   3
BRANCH   1  25
ATOM     25  N   UNL     1      -2.316   0.072  -0.820  1.00  0.00    -0.334 N 
BRANCH  25  26
ATOM     26  C   UNL     1      -2.776  -0.537   0.432  1.00  0.00     0.148 CG0
ATOM     27  G   UNL     1      -2.741   0.482   1.575  1.00  0.00     0.000 G0
ENDBRANCH  25  26
BRANCH  25  28
ATOM     28  C   UNL     1      -2.531   1.516  -0.938  1.00  0.00     0.154 C 
BRANCH  28  29
ATOM     29  C   UNL     1      -3.709   1.971  -0.066  1.00  0.00     0.163 C 
BRANCH  29  30
ATOM     30  O   UNL     1      -3.535   1.652   1.336  1.00  0.00    -0.372 OA
BRANCH  30  31
ATOM     31  C   UNL     1      -2.741   0.482   1.575  1.00  0.00     0.182 CG0
ATOM     32  G   UNL     1      -2.776  -0.537   0.432  1.00  0.00     0.000 G0
ENDBRANCH  30  31
ENDBRANCH  29  30
BRANCH  29  33
ATOM     33  C   UNL     1      -3.918   3.483  -0.166  1.00  0.00     0.189 C 
BRANCH  33  34
ATOM     34  O   UNL     1      -5.050   3.866   0.616  1.00  0.00    -0.394 OA
ATOM     35  H   UNL     1      -4.939   3.406   1.471  1.00  0.00     0.210 HD
ENDBRANCH  33  34
ENDBRANCH  29  33
ENDBRANCH  28  29
ENDBRANCH  25  28
ENDBRANCH   1  25
TORSDOF 7
