REMARK SMILES CSc1ccccc1C(=O)N1CCOC(CCN(C)C)C1
REMARK SMILES IDX 21 1 11 2 9 3 10 4 8 5 3 6 4 7 5 8 7 9 6 10 2 11 1 12 12 13
REMARK SMILES IDX 15 15 14 16 13 17 16 19 17 20 18 21 19 22 20 23
REMARK H PARENT
REMARK Flexibility Score: 90.00
ROOT
ATOM      1  C   UNL     1       0.464   0.431  -0.657  1.00  0.00     0.152 C 
ENDROOT
BRANCH   1   2
ATOM      2  N   UNL     1      -0.843   0.763  -0.087  1.00  0.00    -0.334 N 
BRANCH   2   3
ATOM      3  C   UNL     1      -1.986   0.264  -0.694  1.00  0.00     0.255 C 
ATOM      4  O   UNL     1      -1.980  -0.373  -1.744  1.00  0.00    -0.269 OA
BRANCH   3   5
ATOM      5  C   UNL     1      -3.293   0.539  -0.068  1.00  0.00     0.053 A 
ATOM      6  C   UNL     1      -3.751  -0.165   1.057  1.00  0.00     0.020 A 
ATOM      7  C   UNL     1      -4.997   0.185   1.598  1.00  0.00     0.016 A 
ATOM      8  C   UNL     1      -5.776   1.188   1.013  1.00  0.00     0.001 A 
ATOM      9  C   UNL     1      -4.082   1.532  -0.667  1.00  0.00     0.015 A 
ATOM     10  C   UNL     1      -5.323   1.857  -0.122  1.00  0.00     0.001 A 
BRANCH   6  11
ATOM     11  S   UNL     1      -2.847  -1.481   1.864  1.00  0.00    -0.129 SA
ATOM     12  C   UNL     1      -3.102  -2.798   0.642  1.00  0.00     0.091 C 
ENDBRANCH   6  11
ENDBRANCH   3   5
ENDBRANCH   2   3
BRANCH   2  13
ATOM     13  C   UNL     1      -0.818   1.630   1.095  1.00  0.00     0.148 CG0
ATOM     14  G   UNL     1       0.424   2.523   1.082  1.00  0.00     0.000 G0
ENDBRANCH   2  13
ENDBRANCH   1   2
BRANCH   1  15
ATOM     15  C   UNL     1       1.569   0.495   0.415  1.00  0.00     0.139 C 
BRANCH  15  16
ATOM     16  O   UNL     1       1.659   1.798   1.034  1.00  0.00    -0.374 OA
BRANCH  16  17
ATOM     17  C   UNL     1       0.424   2.523   1.082  1.00  0.00     0.182 CG0
ATOM     18  G   UNL     1      -0.818   1.630   1.095  1.00  0.00     0.000 G0
ENDBRANCH  16  17
ENDBRANCH  15  16
BRANCH  15  19
ATOM     19  C   UNL     1       2.966   0.176  -0.135  1.00  0.00     0.049 C 
BRANCH  19  20
ATOM     20  C   UNL     1       3.100  -1.266  -0.643  1.00  0.00     0.086 C 
BRANCH  20  21
ATOM     21  N   UNL     1       4.437  -1.686  -1.087  1.00  0.00    -0.309 NA
ATOM     22  C   UNL     1       4.933  -0.908  -2.219  1.00  0.00     0.104 C 
ATOM     23  C   UNL     1       5.415  -1.715  -0.003  1.00  0.00     0.104 C 
ENDBRANCH  20  21
ENDBRANCH  19  20
ENDBRANCH  15  19
ENDBRANCH   1  15
TORSDOF 6
