REMARK SMILES Fc1ccc(CN2CCOC(Cn3cncn3)C2)c2ncccc12
REMARK SMILES IDX 18 1 7 2 6 3 5 4 1 5 2 6 3 7 24 8 4 9 19 10 23 11 20 12
REMARK SMILES IDX 22 13 21 14 8 15 11 17 10 18 9 19 12 21 13 22 14 23 17 24
REMARK SMILES IDX 15 25 16 26
REMARK H PARENT
REMARK Flexibility Score: 90.00
ROOT
ATOM      1  C   UNL     1       0.410   0.487  -0.534  1.00  0.00     0.119 C 
ENDROOT
BRANCH   1   2
ATOM      2  N   UNL     1       0.000  -0.871  -0.948  1.00  0.00    -0.294 NA
BRANCH   2   3
ATOM      3  C   UNL     1      -1.470  -0.996  -1.001  1.00  0.00     0.122 C 
BRANCH   3   4
ATOM      4  C   UNL     1      -2.106  -0.932   0.377  1.00  0.00    -0.007 A 
ATOM      5  F   UNL     1      -3.684  -0.878   4.177  1.00  0.00    -0.206 F 
ATOM      6  C   UNL     1      -3.167  -0.889   2.935  1.00  0.00     0.132 A 
ATOM      7  C   UNL     1      -2.344  -1.947   2.574  1.00  0.00     0.040 A 
ATOM      8  C   UNL     1      -3.469   0.153   2.045  1.00  0.00     0.036 A 
ATOM      9  C   UNL     1      -1.812  -1.967   1.292  1.00  0.00     0.010 A 
ATOM     10  C   UNL     1      -2.940   0.142   0.736  1.00  0.00     0.078 A 
ATOM     11  C   UNL     1      -4.288   1.222   2.432  1.00  0.00     0.015 A 
ATOM     12  N   UNL     1      -3.214   1.145  -0.132  1.00  0.00    -0.256 NA
ATOM     13  C   UNL     1      -4.565   2.245   1.536  1.00  0.00     0.021 A 
ATOM     14  C   UNL     1      -4.008   2.160   0.276  1.00  0.00     0.112 A 
ENDBRANCH   3   4
ENDBRANCH   2   3
BRANCH   2  15
ATOM     15  C   UNL     1       0.628  -1.239  -2.238  1.00  0.00     0.113 CG0
ATOM     16  G   UNL     1       1.390  -0.086  -2.920  1.00  0.00     0.000 G0
ENDBRANCH   2  15
ENDBRANCH   1   2
BRANCH   1  17
ATOM     17  C   UNL     1       1.929   0.706  -0.702  1.00  0.00     0.154 C 
BRANCH  17  18
ATOM     18  O   UNL     1       2.367   0.525  -2.068  1.00  0.00    -0.374 OA
BRANCH  18  19
ATOM     19  C   UNL     1       1.390  -0.086  -2.920  1.00  0.00     0.176 CG0
ATOM     20  G   UNL     1       0.628  -1.239  -2.238  1.00  0.00     0.000 G0
ENDBRANCH  18  19
ENDBRANCH  17  18
BRANCH  17  21
ATOM     21  C   UNL     1       2.735  -0.225   0.216  1.00  0.00     0.179 C 
BRANCH  21  22
ATOM     22  N   UNL     1       4.136   0.114   0.378  1.00  0.00    -0.250 N 
ATOM     23  C   UNL     1       4.880   1.089  -0.211  1.00  0.00     0.219 A 
ATOM     24  N   UNL     1       4.890  -0.607   1.240  1.00  0.00    -0.160 NA
ATOM     25  N   UNL     1       6.115   1.033   0.236  1.00  0.00    -0.224 NA
ATOM     26  C   UNL     1       6.084  -0.028   1.094  1.00  0.00     0.246 A 
ENDBRANCH  21  22
ENDBRANCH  17  21
ENDBRANCH   1  17
TORSDOF 4
