REMARK SMILES COc1ccc(Cc2nc3ccc(C(=O)N4C[C@@H](C)O[C@@H](C)C4)cc3o2)cc1OC
REMARK SMILES IDX 14 1 15 2 13 3 8 4 9 5 26 6 10 7 25 8 11 9 24 10 12 11 7 12
REMARK SMILES IDX 6 13 3 14 4 15 28 16 5 17 27 18 2 19 1 20 29 21 30 22 16 23
REMARK SMILES IDX 17 24 18 25 19 26 20 27 21 28 22 29 23 31
REMARK H PARENT
REMARK Flexibility Score: 80.00
ROOT
ATOM      1  C   UNL     1       3.845   0.768  -1.406  1.00  0.00     0.254 C 
ATOM      2  O   UNL     1       4.680   0.470  -2.256  1.00  0.00    -0.269 OA
ENDROOT
BRANCH   1   3
ATOM      3  C   UNL     1       2.470   0.254  -1.594  1.00  0.00     0.043 A 
ATOM      4  C   UNL     1      -1.955   0.169  -2.078  1.00  0.00     0.199 A 
ATOM      5  N   UNL     1      -1.411  -1.031  -2.183  1.00  0.00    -0.213 NA
ATOM      6  O   UNL     1      -1.063   1.189  -1.871  1.00  0.00    -0.440 OA
ATOM      7  C   UNL     1      -0.072  -0.796  -2.010  1.00  0.00     0.109 A 
ATOM      8  C   UNL     1       0.147   0.560  -1.824  1.00  0.00     0.155 A 
ATOM      9  C   UNL     1       1.022  -1.670  -2.003  1.00  0.00     0.033 A 
ATOM     10  C   UNL     1       1.389   1.147  -1.625  1.00  0.00     0.063 A 
ATOM     11  C   UNL     1       2.299  -1.125  -1.800  1.00  0.00     0.016 A 
BRANCH   4  12
ATOM     12  C   UNL     1      -3.390   0.552  -2.183  1.00  0.00     0.133 C 
BRANCH  12  13
ATOM     13  C   UNL     1      -4.175   0.236  -0.931  1.00  0.00    -0.035 A 
ATOM     14  C   UNL     1      -5.630  -0.368   1.405  1.00  0.00     0.160 A 
ATOM     15  C   UNL     1      -5.038   0.889   1.243  1.00  0.00     0.051 A 
ATOM     16  C   UNL     1      -5.483  -1.340   0.394  1.00  0.00     0.161 A 
ATOM     17  C   UNL     1      -4.315   1.188   0.085  1.00  0.00     0.008 A 
ATOM     18  C   UNL     1      -4.752  -1.033  -0.761  1.00  0.00     0.054 A 
BRANCH  14  19
ATOM     19  O   UNL     1      -6.363  -0.745   2.503  1.00  0.00    -0.493 OA
ATOM     20  C   UNL     1      -6.557   0.219   3.529  1.00  0.00     0.278 C 
ENDBRANCH  14  19
BRANCH  16  21
ATOM     21  O   UNL     1      -6.089  -2.551   0.630  1.00  0.00    -0.493 OA
ATOM     22  C   UNL     1      -5.976  -3.550  -0.374  1.00  0.00     0.278 C 
ENDBRANCH  16  21
ENDBRANCH  12  13
ENDBRANCH   4  12
ENDBRANCH   1   3
BRANCH   1  23
ATOM     23  N   UNL     1       4.124   1.556  -0.297  1.00  0.00    -0.333 N 
BRANCH  23  24
ATOM     24  C   UNL     1       3.351   1.575   0.945  1.00  0.00     0.151 C 
BRANCH  24  25
ATOM     25  C   UNL     1       4.085   0.815   2.067  1.00  0.00     0.135 C 
ATOM     26  C   UNL     1       3.920  -0.700   1.971  1.00  0.00     0.040 C 
BRANCH  25  27
ATOM     27  O   UNL     1       5.461   1.204   2.203  1.00  0.00    -0.372 OA
BRANCH  27  28
ATOM     28  C   UNL     1       6.228   1.307   0.988  1.00  0.00     0.135 CG0
ATOM     29  C   UNL     1       6.773  -0.045   0.539  1.00  0.00     0.040 C 
ATOM     30  G   UNL     1       5.482   2.066  -0.123  1.00  0.00     0.000 G0
ENDBRANCH  27  28
ENDBRANCH  25  27
ENDBRANCH  24  25
ENDBRANCH  23  24
BRANCH  23  31
ATOM     31  C   UNL     1       5.482   2.066  -0.123  1.00  0.00     0.151 CG0
ATOM     32  G   UNL     1       6.228   1.307   0.988  1.00  0.00     0.000 G0
ENDBRANCH  23  31
ENDBRANCH   1  23
TORSDOF 6
