REMARK SMILES CC(C)c1cc(C(=O)N2CCO[C@H](C)C2)cc(C(C)C)c1O
REMARK SMILES IDX 10 1 9 2 7 3 8 4 6 5 4 6 5 7 21 8 17 9 16 10 2 11 1 12 3 13
REMARK SMILES IDX 22 14 18 16 19 17 20 18 15 19 11 21 12 22 13 23 14 24
REMARK H PARENT 22 15
REMARK Flexibility Score: 80.00
ROOT
ATOM      1  C   UNL     1       3.760   0.522  -1.408  1.00  0.00     0.148 C 
ENDROOT
BRANCH   1   2
ATOM      2  N   UNL     1       2.450   0.277  -0.805  1.00  0.00    -0.334 N 
BRANCH   2   3
ATOM      3  C   UNL     1       1.320   0.747  -1.465  1.00  0.00     0.254 C 
ATOM      4  O   UNL     1       1.373   1.418  -2.493  1.00  0.00    -0.269 OA
BRANCH   3   5
ATOM      5  C   UNL     1      -0.016   0.430  -0.908  1.00  0.00     0.040 A 
ATOM      6  C   UNL     1      -1.651  -1.182  -0.111  1.00  0.00    -0.003 A 
ATOM      7  C   UNL     1      -0.377  -0.888  -0.623  1.00  0.00     0.021 A 
ATOM      8  C   UNL     1      -2.554  -0.117   0.083  1.00  0.00     0.122 A 
ATOM      9  C   UNL     1      -2.207   1.224  -0.190  1.00  0.00    -0.003 A 
ATOM     10  C   UNL     1      -0.929   1.472  -0.719  1.00  0.00     0.021 A 
BRANCH   6  11
ATOM     11  C   UNL     1      -2.037  -2.623   0.198  1.00  0.00     0.017 C 
ATOM     12  C   UNL     1      -2.052  -3.482  -1.070  1.00  0.00     0.012 C 
ATOM     13  C   UNL     1      -1.117  -3.234   1.260  1.00  0.00     0.012 C 
ENDBRANCH   6  11
BRANCH   8  14
ATOM     14  O   UNL     1      -3.804  -0.439   0.543  1.00  0.00    -0.507 OA
ATOM     15  H   UNL     1      -4.439   0.213   0.205  1.00  0.00     0.293 HD
ENDBRANCH   8  14
BRANCH   9  16
ATOM     16  C   UNL     1      -3.174   2.376   0.053  1.00  0.00     0.017 C 
ATOM     17  C   UNL     1      -2.508   3.641   0.613  1.00  0.00     0.012 C 
ATOM     18  C   UNL     1      -3.944   2.703  -1.229  1.00  0.00     0.012 C 
ENDBRANCH   9  16
ENDBRANCH   3   5
ENDBRANCH   2   3
BRANCH   2  19
ATOM     19  C   UNL     1       2.478  -0.213   0.579  1.00  0.00     0.151 CG0
ATOM     20  G   UNL     1       3.803   0.159   1.270  1.00  0.00     0.000 G0
ENDBRANCH   2  19
ENDBRANCH   1   2
BRANCH   1  21
ATOM     21  C   UNL     1       4.811  -0.433  -0.841  1.00  0.00     0.182 C 
BRANCH  21  22
ATOM     22  O   UNL     1       4.950  -0.375   0.588  1.00  0.00    -0.375 OA
BRANCH  22  23
ATOM     23  C   UNL     1       3.803   0.159   1.270  1.00  0.00     0.134 CG0
ATOM     24  C   UNL     1       3.839  -0.351   2.703  1.00  0.00     0.040 C 
ATOM     25  G   UNL     1       2.478  -0.213   0.579  1.00  0.00     0.000 G0
ENDBRANCH  22  23
ENDBRANCH  21  22
ENDBRANCH   1  21
TORSDOF 5
