REMARK SMILES CN(CCN1CC2CN(Cc3ccc(F)cc3)CC(C1)O2)S(=O)(=O)c1ccc(C#N)cc1
REMARK SMILES IDX 6 1 5 2 4 3 3 4 2 5 1 6 22 7 23 8 24 9 25 10 26 11 32 12
REMARK SMILES IDX 27 13 31 14 28 15 29 16 30 17 20 18 7 20 21 22 19 23 18 25
REMARK SMILES IDX 9 26 8 27 10 29 11 30 12 31 17 32 13 33 16 34 14 35 15 36
REMARK H PARENT
REMARK Flexibility Score: 170.00
ROOT
ATOM      1  C   UNL     1       0.083  -1.199  -1.901  1.00  0.00     0.118 C 
ENDROOT
BRANCH   1   2
ATOM      2  N   UNL     1      -0.767  -1.485  -0.661  1.00  0.00    -0.297 NA
BRANCH   2   3
ATOM      3  C   UNL     1      -1.588  -2.693  -0.828  1.00  0.00     0.101 C 
BRANCH   3   4
ATOM      4  C   UNL     1      -2.720  -2.860   0.214  1.00  0.00     0.117 C 
BRANCH   4   5
ATOM      5  N   UNL     1      -3.527  -1.617   0.353  1.00  0.00    -0.200 NA
ATOM      6  C   UNL     1      -3.860  -1.290   1.750  1.00  0.00     0.124 C 
BRANCH   5   7
ATOM      7  S   UNL     1      -4.780  -1.415  -0.776  1.00  0.00     0.242 S 
ATOM      8  O   UNL     1      -5.990  -1.932  -0.170  1.00  0.00    -0.207 OA
ATOM      9  O   UNL     1      -4.344  -1.865  -2.079  1.00  0.00    -0.207 OA
BRANCH   7  10
ATOM     10  C   UNL     1      -4.916   0.356  -0.869  1.00  0.00     0.082 A 
ATOM     11  C   UNL     1      -6.151   0.976  -0.668  1.00  0.00     0.023 A 
ATOM     12  C   UNL     1      -3.768   1.109  -1.135  1.00  0.00     0.023 A 
ATOM     13  C   UNL     1      -6.236   2.369  -0.736  1.00  0.00     0.021 A 
ATOM     14  C   UNL     1      -3.859   2.501  -1.201  1.00  0.00     0.021 A 
ATOM     15  C   UNL     1      -5.092   3.134  -1.002  1.00  0.00     0.052 A 
BRANCH  15  16
ATOM     16  C   UNL     1      -5.184   4.564  -1.068  1.00  0.00     0.099 C 
ATOM     17  N   UNL     1      -5.261   5.721  -1.118  1.00  0.00    -0.192 NA
ENDBRANCH  15  16
ENDBRANCH   7  10
ENDBRANCH   5   7
ENDBRANCH   4   5
ENDBRANCH   3   4
ENDBRANCH   2   3
BRANCH   2  18
ATOM     18  C   UNL     1      -0.015  -1.434   0.663  1.00  0.00     0.118 CG1
ATOM     19  G   UNL     1       1.333  -0.886   0.303  1.00  0.00     0.000 G1
ENDBRANCH   2  18
ENDBRANCH   1   2
BRANCH   1  20
ATOM     20  C   UNL     1       1.184  -0.052  -1.731  1.00  0.00     0.146 CG0
ATOM     21  G   UNL     1       2.728  -0.443  -1.782  1.00  0.00     0.000 G0
BRANCH  20  22
ATOM     22  O   UNL     1       1.013   0.356  -0.382  1.00  0.00    -0.370 OA
BRANCH  22  23
ATOM     23  C   UNL     1       1.333  -0.886   0.303  1.00  0.00     0.146 CG1
ATOM     24  G   UNL     1      -0.015  -1.434   0.663  1.00  0.00     0.000 G1
BRANCH  23  25
ATOM     25  C   UNL     1       2.720  -0.626   0.795  1.00  0.00     0.118 C 
BRANCH  25  26
ATOM     26  N   UNL     1       3.546  -0.322  -0.476  1.00  0.00    -0.294 NA
BRANCH  26  27
ATOM     27  C   UNL     1       2.728  -0.443  -1.782  1.00  0.00     0.118 CG0
ATOM     28  G   UNL     1       1.184  -0.052  -1.731  1.00  0.00     0.000 G0
ENDBRANCH  26  27
BRANCH  26  29
ATOM     29  C   UNL     1       4.119   1.036  -0.385  1.00  0.00     0.120 C 
BRANCH  29  30
ATOM     30  C   UNL     1       5.178   1.162   0.694  1.00  0.00    -0.034 A 
ATOM     31  C   UNL     1       6.283   0.294   0.714  1.00  0.00     0.008 A 
ATOM     32  C   UNL     1       5.083   2.166   1.671  1.00  0.00     0.008 A 
ATOM     33  C   UNL     1       7.265   0.419   1.697  1.00  0.00     0.039 A 
ATOM     34  C   UNL     1       6.067   2.290   2.654  1.00  0.00     0.039 A 
ATOM     35  C   UNL     1       7.147   1.416   2.658  1.00  0.00     0.123 A 
ATOM     36  F   UNL     1       8.089   1.537   3.602  1.00  0.00    -0.207 F 
ENDBRANCH  29  30
ENDBRANCH  26  29
ENDBRANCH  25  26
ENDBRANCH  23  25
ENDBRANCH  22  23
ENDBRANCH  20  22
ENDBRANCH   1  20
TORSDOF 8
