REMARK SMILES C[C@]12CC[C@@]3(C[C@@H]1CC[C@@H]1[C@@H]2CC[C@]2(C)C(=O)CC[C@@H]12)CN(Cc1ccccc1)[C@@H](Cc1ccccc1)C(=O)O3
REMARK SMILES IDX 4 1 3 2 2 3 1 4 7 5 6 7 11 9 10 10 9 11 8 12 20 14 14 15
REMARK SMILES IDX 19 16 15 17 16 18 18 19 17 20 13 21 12 23 5 25 21 27 22 28
REMARK SMILES IDX 23 29 24 30 25 31 29 32 26 33 28 34 27 35 30 36 31 38 32 39
REMARK SMILES IDX 33 40 37 41 34 42 36 43 35 44 40 45 38 46 39 47
REMARK H PARENT
REMARK Flexibility Score: 360.00
ROOT
ATOM      1  C   UNL     1      -0.452  -1.691   1.335  1.00  0.00     0.051 C 
ENDROOT
BRANCH   1   2
ATOM      2  C   UNL     1       0.970  -1.211   1.651  1.00  0.00     0.011 C 
BRANCH   2   3
ATOM      3  C   UNL     1       1.806  -0.866   0.389  1.00  0.00    -0.026 C 
ATOM      4  C   UNL     1       2.087  -2.178  -0.387  1.00  0.00     0.012 C 
BRANCH   3   5
ATOM      5  C   UNL     1       0.986   0.154  -0.462  1.00  0.00    -0.001 CG1
ATOM      6  G   UNL     1       1.746   0.616  -1.710  1.00  0.00     0.000 G1
BRANCH   5   7
ATOM      7  C   UNL     1      -0.423  -0.354  -0.817  1.00  0.00     0.054 CG0
ATOM      8  G   UNL     1      -1.241  -0.711   0.448  1.00  0.00     0.000 G0
ENDBRANCH   5   7
ENDBRANCH   3   5
BRANCH   3   9
ATOM      9  C   UNL     1       3.151  -0.159   0.796  1.00  0.00    -0.001 C 
BRANCH   9  10
ATOM     10  C   UNL     1       3.945   0.353  -0.452  1.00  0.00    -0.003 C 
BRANCH  10  11
ATOM     11  C   UNL     1       3.077   1.263  -1.332  1.00  0.00     0.004 C 
BRANCH  11  12
ATOM     12  C   UNL     1       1.746   0.616  -1.710  1.00  0.00     0.004 CG1
ATOM     13  G   UNL     1       0.986   0.154  -0.462  1.00  0.00     0.000 G1
ENDBRANCH  11  12
ENDBRANCH  10  11
BRANCH  10  14
ATOM     14  C   UNL     1       5.197   1.078   0.050  1.00  0.00     0.006 C 
ATOM     15  C   UNL     1       6.121   0.139   0.855  1.00  0.00     0.029 C 
ATOM     16  C   UNL     1       6.132   1.759  -0.943  1.00  0.00     0.013 C 
ATOM     17  C   UNL     1       6.670  -1.082   0.093  1.00  0.00     0.020 C 
ATOM     18  C   UNL     1       7.286   1.094   1.043  1.00  0.00     0.139 C 
ATOM     19  C   UNL     1       7.343   2.126  -0.071  1.00  0.00     0.076 C 
ATOM     20  O   UNL     1       8.096   1.035   1.959  1.00  0.00    -0.299 OA
BRANCH  15  21
ATOM     21  C   UNL     1       5.373  -0.284   2.115  1.00  0.00     0.015 CG2
ATOM     22  G   UNL     1       4.046  -0.982   1.761  1.00  0.00     0.000 G2
ENDBRANCH  15  21
ENDBRANCH  10  14
ENDBRANCH   9  10
BRANCH   9  23
ATOM     23  C   UNL     1       4.046  -0.982   1.761  1.00  0.00     0.005 CG2
ATOM     24  G   UNL     1       5.373  -0.284   2.115  1.00  0.00     0.000 G2
ENDBRANCH   9  23
ENDBRANCH   3   9
ENDBRANCH   2   3
ENDBRANCH   1   2
BRANCH   1  25
ATOM     25  C   UNL     1      -1.241  -0.711   0.448  1.00  0.00     0.125 CG0
ATOM     26  G   UNL     1      -0.423  -0.354  -0.817  1.00  0.00     0.000 G0
BRANCH  25  27
ATOM     27  C   UNL     1      -2.605  -1.338   0.089  1.00  0.00     0.134 C 
BRANCH  27  28
ATOM     28  N   UNL     1      -3.444  -0.333  -0.567  1.00  0.00    -0.282 NA
BRANCH  28  29
ATOM     29  C   UNL     1      -4.665  -0.896  -1.150  1.00  0.00     0.121 C 
BRANCH  29  30
ATOM     30  C   UNL     1      -4.386  -1.637  -2.441  1.00  0.00    -0.034 A 
ATOM     31  C   UNL     1      -4.689  -3.000  -2.571  1.00  0.00     0.005 A 
ATOM     32  C   UNL     1      -3.823  -0.962  -3.536  1.00  0.00     0.005 A 
ATOM     33  C   UNL     1      -4.428  -3.673  -3.766  1.00  0.00     0.000 A 
ATOM     34  C   UNL     1      -3.564  -1.635  -4.730  1.00  0.00     0.000 A 
ATOM     35  C   UNL     1      -3.865  -2.991  -4.844  1.00  0.00     0.000 A 
ENDBRANCH  29  30
ENDBRANCH  28  29
BRANCH  28  36
ATOM     36  C   UNL     1      -3.699   0.816   0.343  1.00  0.00     0.172 CG3
ATOM     37  G   UNL     1      -2.366   1.403   0.841  1.00  0.00     0.000 G3
BRANCH  36  38
ATOM     38  C   UNL     1      -4.578   0.514   1.583  1.00  0.00     0.066 C 
BRANCH  38  39
ATOM     39  C   UNL     1      -5.352   1.721   2.065  1.00  0.00    -0.046 A 
ATOM     40  C   UNL     1      -4.782   2.627   2.968  1.00  0.00     0.004 A 
ATOM     41  C   UNL     1      -6.651   1.960   1.593  1.00  0.00     0.004 A 
ATOM     42  C   UNL     1      -5.495   3.749   3.391  1.00  0.00     0.000 A 
ATOM     43  C   UNL     1      -7.365   3.080   2.022  1.00  0.00     0.000 A 
ATOM     44  C   UNL     1      -6.787   3.974   2.919  1.00  0.00     0.000 A 
ENDBRANCH  38  39
ENDBRANCH  36  38
ENDBRANCH  28  36
ENDBRANCH  27  28
ENDBRANCH  25  27
BRANCH  25  45
ATOM     45  O   UNL     1      -1.423   0.499   1.230  1.00  0.00    -0.457 OA
BRANCH  45  46
ATOM     46  C   UNL     1      -2.366   1.403   0.841  1.00  0.00     0.324 CG3
ATOM     47  O   UNL     1      -2.182   2.605   1.007  1.00  0.00    -0.250 OA
ATOM     48  G   UNL     1      -3.699   0.816   0.343  1.00  0.00     0.000 G3
ENDBRANCH  45  46
ENDBRANCH  25  45
ENDBRANCH   1  25
TORSDOF 4
