REMARK SMILES Cn1cc(-c2ccncc2/C=C/C(=O)Nc2ccc(CN3CCOC(C)(C)C3)cc2)cn1
REMARK SMILES IDX 20 1 19 2 16 3 17 4 30 5 18 6 29 7 15 8 13 9 14 10 12 12
REMARK SMILES IDX 11 13 10 14 5 15 6 16 7 17 9 18 8 19 4 20 1 21 2 22 3 23
REMARK SMILES IDX 32 24 31 25 21 26 22 27 28 29 25 30 26 31 27 32 24 33 23 34
REMARK H PARENT 15 11
REMARK Flexibility Score: 80.00
ROOT
ATOM      1  C   UNL     1      -4.599  -0.136   2.223  1.00  0.00     0.120 C 
ENDROOT
BRANCH   1   2
ATOM      2  C   UNL     1      -3.177   0.273   1.907  1.00  0.00    -0.034 A 
ATOM      3  C   UNL     1      -0.513   1.027   1.324  1.00  0.00     0.041 A 
ATOM      4  C   UNL     1      -0.797  -0.245   1.820  1.00  0.00     0.026 A 
ATOM      5  C   UNL     1      -1.571   1.923   1.124  1.00  0.00     0.026 A 
ATOM      6  C   UNL     1      -2.115  -0.618   2.109  1.00  0.00     0.007 A 
ATOM      7  C   UNL     1      -2.888   1.552   1.415  1.00  0.00     0.007 A 
BRANCH   3   8
ATOM      8  N   UNL     1       0.786   1.480   1.002  1.00  0.00    -0.323 N 
ATOM      9  C   UNL     1       1.971   0.787   1.148  1.00  0.00     0.248 C 
ATOM     10  O   UNL     1       2.123  -0.337   1.607  1.00  0.00    -0.270 OA
ATOM     11  H   UNL     1       0.834   2.418   0.628  1.00  0.00     0.170 HD
BRANCH   9  12
ATOM     12  C   UNL     1       3.140   1.584   0.672  1.00  0.00     0.072 C 
ATOM     13  C   UNL     1       4.373   1.055   0.725  1.00  0.00     0.016 C 
BRANCH  13  14
ATOM     14  C   UNL     1       5.578   1.761   0.263  1.00  0.00     0.001 A 
ATOM     15  C   UNL     1       6.548   1.165  -0.563  1.00  0.00    -0.005 A 
ATOM     16  C   UNL     1       7.694   1.895  -0.908  1.00  0.00     0.029 A 
ATOM     17  C   UNL     1       7.836   3.185  -0.426  1.00  0.00     0.111 A 
ATOM     18  C   UNL     1       5.841   3.060   0.706  1.00  0.00     0.119 A 
ATOM     19  N   UNL     1       6.934   3.786   0.374  1.00  0.00    -0.264 NA
BRANCH  15  20
ATOM     20  C   UNL     1       6.395  -0.176  -1.103  1.00  0.00     0.020 A 
ATOM     21  C   UNL     1       7.426  -3.562  -1.787  1.00  0.00     0.173 C 
ATOM     22  N   UNL     1       6.816  -2.263  -1.639  1.00  0.00    -0.275 N 
ATOM     23  C   UNL     1       7.351  -1.168  -1.022  1.00  0.00     0.117 A 
ATOM     24  N   UNL     1       5.587  -2.047  -2.141  1.00  0.00    -0.181 NA
ATOM     25  C   UNL     1       5.327  -0.781  -1.802  1.00  0.00     0.143 A 
ENDBRANCH  15  20
ENDBRANCH  13  14
ENDBRANCH   9  12
ENDBRANCH   3   8
ENDBRANCH   1   2
BRANCH   1  26
ATOM     26  N   UNL     1      -5.381  -0.747   1.143  1.00  0.00    -0.294 NA
BRANCH  26  27
ATOM     27  C   UNL     1      -4.836  -2.027   0.661  1.00  0.00     0.113 CG0
ATOM     28  G   UNL     1      -5.782  -2.672  -0.364  1.00  0.00     0.000 G0
ENDBRANCH  26  27
BRANCH  26  29
ATOM     29  C   UNL     1      -5.611   0.139  -0.011  1.00  0.00     0.119 C 
BRANCH  29  30
ATOM     30  C   UNL     1      -6.564  -0.511  -1.054  1.00  0.00     0.075 C 
ATOM     31  C   UNL     1      -7.998  -0.641  -0.518  1.00  0.00     0.043 C 
ATOM     32  C   UNL     1      -6.592   0.356  -2.320  1.00  0.00     0.043 C 
BRANCH  30  33
ATOM     33  O   UNL     1      -6.061  -1.799  -1.468  1.00  0.00    -0.373 OA
BRANCH  33  34
ATOM     34  C   UNL     1      -5.782  -2.672  -0.364  1.00  0.00     0.176 CG0
ATOM     35  G   UNL     1      -4.836  -2.027   0.661  1.00  0.00     0.000 G0
ENDBRANCH  33  34
ENDBRANCH  30  33
ENDBRANCH  29  30
ENDBRANCH  26  29
ENDBRANCH   1  26
TORSDOF 6
