REMARK SMILES CC(=O)N1C[C@@H]2OCC(=O)N(Cc3ccc(F)cc3)[C@@H]2C1
REMARK SMILES IDX 4 1 5 2 6 3 20 4 21 5 2 6 1 7 3 8 7 9 8 10 11 12 9 13 10 14
REMARK SMILES IDX 12 16 13 17 14 18 19 19 15 20 18 21 16 22 17 23
REMARK H PARENT
REMARK Flexibility Score: 90.00
ROOT
ATOM      1  N   UNL     1       2.830  -0.073   0.365  1.00  0.00    -0.338 N 
ATOM      2  C   UNL     1       2.493  -0.930   1.497  1.00  0.00     0.153 C 
ATOM      3  C   UNL     1       1.104  -1.486   1.168  1.00  0.00     0.162 C 
ATOM      4  C   UNL     1       0.486  -0.362   0.320  1.00  0.00     0.135 C 
ATOM      5  C   UNL     1       1.688   0.100  -0.518  1.00  0.00     0.147 C 
ENDROOT
BRANCH   1   6
ATOM      6  C   UNL     1       4.101   0.418   0.191  1.00  0.00     0.219 C 
ATOM      7  C   UNL     1       4.342   1.223  -1.060  1.00  0.00     0.114 C 
ATOM      8  O   UNL     1       4.996   0.235   1.013  1.00  0.00    -0.275 OA
ENDBRANCH   1   6
BRANCH   3   9
ATOM      9  O   UNL     1       1.249  -2.673   0.377  1.00  0.00    -0.364 OA
BRANCH   9  10
ATOM     10  C   UNL     1      -0.014  -3.128  -0.079  1.00  0.00     0.260 CG0
ATOM     11  G   UNL     1      -0.918  -2.100  -0.777  1.00  0.00     0.000 G0
ENDBRANCH   9  10
ENDBRANCH   3   9
BRANCH   4  12
ATOM     12  N   UNL     1      -0.672  -0.767  -0.475  1.00  0.00    -0.329 N 
BRANCH  12  13
ATOM     13  C   UNL     1      -0.918  -2.100  -0.777  1.00  0.00     0.249 CG0
ATOM     14  O   UNL     1      -1.843  -2.461  -1.503  1.00  0.00    -0.272 OA
ATOM     15  G   UNL     1      -0.014  -3.128  -0.079  1.00  0.00     0.000 G0
ENDBRANCH  12  13
BRANCH  12  16
ATOM     16  C   UNL     1      -1.522   0.272  -1.047  1.00  0.00     0.155 C 
BRANCH  16  17
ATOM     17  C   UNL     1      -2.445   0.874  -0.013  1.00  0.00    -0.028 A 
ATOM     18  C   UNL     1      -3.519   0.122   0.493  1.00  0.00     0.008 A 
ATOM     19  C   UNL     1      -2.239   2.178   0.464  1.00  0.00     0.008 A 
ATOM     20  C   UNL     1      -4.369   0.664   1.458  1.00  0.00     0.039 A 
ATOM     21  C   UNL     1      -3.091   2.717   1.430  1.00  0.00     0.039 A 
ATOM     22  C   UNL     1      -4.147   1.956   1.917  1.00  0.00     0.123 A 
ATOM     23  F   UNL     1      -4.961   2.477   2.844  1.00  0.00    -0.207 F 
ENDBRANCH  16  17
ENDBRANCH  12  16
ENDBRANCH   4  12
TORSDOF 3
