REMARK SMILES CCOc1ccc(NS(=O)(=O)c2cc(C(=O)N3CC(C)OC(C)C3)ccc2C)cc1
REMARK SMILES IDX 12 1 13 2 14 3 25 4 26 5 27 6 28 7 9 8 10 9 11 10 8 11 7 13
REMARK SMILES IDX 4 14 5 15 30 16 6 17 29 18 3 19 2 20 1 21 15 22 16 23 17 24
REMARK SMILES IDX 18 25 24 27 22 28 23 29 21 30 19 31 20 32
REMARK H PARENT 8 12
REMARK Flexibility Score: 80.00
ROOT
ATOM      1  C   UNL     1       0.326  -1.206  -0.566  1.00  0.00     0.091 A 
ATOM      2  C   UNL     1      -0.740  -1.299   0.343  1.00  0.00     0.036 A 
ATOM      3  C   UNL     1      -2.043  -1.480  -0.126  1.00  0.00     0.041 A 
ATOM      4  C   UNL     1      -2.281  -1.620  -1.495  1.00  0.00     0.014 A 
ATOM      5  C   UNL     1      -1.221  -1.524  -2.398  1.00  0.00     0.005 A 
ATOM      6  C   UNL     1       0.095  -1.306  -1.954  1.00  0.00    -0.031 A 
ATOM      7  C   UNL     1       1.191  -1.236  -2.982  1.00  0.00     0.046 C 
ENDROOT
BRANCH   1   8
ATOM      8  S   UNL     1       1.971  -1.009   0.110  1.00  0.00     0.262 S 
ATOM      9  O   UNL     1       2.866  -1.876  -0.622  1.00  0.00    -0.201 OA
ATOM     10  O   UNL     1       1.873  -1.062   1.554  1.00  0.00    -0.201 OA
BRANCH   8  11
ATOM     11  N   UNL     1       2.284   0.632  -0.266  1.00  0.00    -0.280 N 
ATOM     12  H   UNL     1       1.773   1.180   0.431  1.00  0.00     0.180 HD
BRANCH  11  13
ATOM     13  C   UNL     1       3.680   0.967  -0.210  1.00  0.00     0.049 A 
ATOM     14  C   UNL     1       6.429   1.479  -0.112  1.00  0.00     0.119 A 
ATOM     15  C   UNL     1       5.794   1.239  -1.334  1.00  0.00     0.048 A 
ATOM     16  C   UNL     1       5.676   1.474   1.062  1.00  0.00     0.048 A 
ATOM     17  C   UNL     1       4.426   0.966  -1.384  1.00  0.00     0.030 A 
ATOM     18  C   UNL     1       4.302   1.213   1.015  1.00  0.00     0.030 A 
BRANCH  14  19
ATOM     19  O   UNL     1       7.770   1.721  -0.202  1.00  0.00    -0.494 OA
BRANCH  19  20
ATOM     20  C   UNL     1       8.582   1.480   0.947  1.00  0.00     0.226 C 
ATOM     21  C   UNL     1       8.798  -0.007   1.173  1.00  0.00     0.049 C 
ENDBRANCH  19  20
ENDBRANCH  14  19
ENDBRANCH  11  13
ENDBRANCH   8  11
ENDBRANCH   1   8
BRANCH   3  22
ATOM     22  C   UNL     1      -3.142  -1.605   0.859  1.00  0.00     0.254 C 
ATOM     23  O   UNL     1      -2.984  -2.385   1.795  1.00  0.00    -0.269 OA
ATOM     24  N   UNL     1      -4.293  -0.846   0.692  1.00  0.00    -0.333 N 
BRANCH  24  25
ATOM     25  C   UNL     1      -5.410  -1.059   1.615  1.00  0.00     0.151 CG0
ATOM     26  G   UNL     1      -6.735  -0.612   0.977  1.00  0.00     0.000 G0
ENDBRANCH  24  25
BRANCH  24  27
ATOM     27  C   UNL     1      -4.438   0.303  -0.212  1.00  0.00     0.151 C 
BRANCH  27  28
ATOM     28  C   UNL     1      -5.435   1.331   0.355  1.00  0.00     0.135 C 
ATOM     29  C   UNL     1      -5.597   2.517  -0.585  1.00  0.00     0.040 C 
BRANCH  28  30
ATOM     30  O   UNL     1      -6.741   0.771   0.578  1.00  0.00    -0.372 OA
BRANCH  30  31
ATOM     31  C   UNL     1      -6.735  -0.612   0.977  1.00  0.00     0.135 CG0
ATOM     32  C   UNL     1      -7.907  -0.825   1.924  1.00  0.00     0.040 C 
ATOM     33  G   UNL     1      -5.410  -1.059   1.615  1.00  0.00     0.000 G0
ENDBRANCH  30  31
ENDBRANCH  28  30
ENDBRANCH  27  28
ENDBRANCH  24  27
ENDBRANCH   3  22
TORSDOF 6
