REMARK SMILES CC1CN(C(=O)c2ccccc2Sc2ccccc2C#N)CC(C)O1
REMARK SMILES IDX 5 1 6 2 4 3 7 4 12 5 11 6 8 7 10 8 9 9 13 10 14 11 19 12
REMARK SMILES IDX 15 13 18 14 16 15 17 16 20 17 21 18 3 19 2 20 1 21 25 22
REMARK SMILES IDX 23 23 24 24 22 26
REMARK H PARENT
REMARK Flexibility Score: 80.00
ROOT
ATOM      1  C   UNL     1      -0.842  -0.855  -0.936  1.00  0.00     0.255 C 
ATOM      2  O   UNL     1      -0.559  -1.078  -2.108  1.00  0.00    -0.269 OA
ATOM      3  N   UNL     1      -1.973  -0.153  -0.534  1.00  0.00    -0.333 N 
ENDROOT
BRANCH   1   4
ATOM      4  C   UNL     1       0.042  -1.398   0.114  1.00  0.00     0.053 A 
ATOM      5  C   UNL     1       1.162  -0.689   0.583  1.00  0.00     0.025 A 
ATOM      6  C   UNL     1       1.908  -1.255   1.628  1.00  0.00     0.016 A 
ATOM      7  C   UNL     1      -0.288  -2.660   0.631  1.00  0.00     0.015 A 
ATOM      8  C   UNL     1       1.574  -2.509   2.152  1.00  0.00     0.001 A 
ATOM      9  C   UNL     1       0.483  -3.215   1.649  1.00  0.00     0.001 A 
BRANCH   5  10
ATOM     10  S   UNL     1       1.589   0.922  -0.075  1.00  0.00    -0.088 SA
BRANCH  10  11
ATOM     11  C   UNL     1       3.379   0.909  -0.118  1.00  0.00     0.030 A 
ATOM     12  C   UNL     1       4.158   0.019  -0.876  1.00  0.00     0.066 A 
ATOM     13  C   UNL     1       4.026   1.895   0.648  1.00  0.00     0.017 A 
ATOM     14  C   UNL     1       5.560   0.116  -0.839  1.00  0.00     0.020 A 
ATOM     15  C   UNL     1       5.419   1.983   0.678  1.00  0.00     0.001 A 
ATOM     16  C   UNL     1       6.187   1.092  -0.064  1.00  0.00     0.001 A 
BRANCH  12  17
ATOM     17  C   UNL     1       3.588  -1.010  -1.699  1.00  0.00     0.100 C 
ATOM     18  N   UNL     1       3.198  -1.878  -2.363  1.00  0.00    -0.192 NA
ENDBRANCH  12  17
ENDBRANCH  10  11
ENDBRANCH   5  10
ENDBRANCH   1   4
BRANCH   3  19
ATOM     19  C   UNL     1      -2.876   0.353  -1.563  1.00  0.00     0.151 C 
BRANCH  19  20
ATOM     20  C   UNL     1      -4.306   0.587  -1.052  1.00  0.00     0.135 C 
ATOM     21  C   UNL     1      -5.070  -0.719  -0.845  1.00  0.00     0.040 C 
BRANCH  20  22
ATOM     22  O   UNL     1      -4.395   1.367   0.150  1.00  0.00    -0.372 OA
BRANCH  22  23
ATOM     23  C   UNL     1      -3.230   1.388   0.985  1.00  0.00     0.135 CG0
ATOM     24  C   UNL     1      -2.473   2.695   0.757  1.00  0.00     0.040 C 
ATOM     25  G   UNL     1      -2.326   0.152   0.853  1.00  0.00     0.000 G0
ENDBRANCH  22  23
ENDBRANCH  20  22
ENDBRANCH  19  20
ENDBRANCH   3  19
BRANCH   3  26
ATOM     26  C   UNL     1      -2.326   0.152   0.853  1.00  0.00     0.151 CG0
ATOM     27  G   UNL     1      -3.230   1.388   0.985  1.00  0.00     0.000 G0
ENDBRANCH   3  26
TORSDOF 4
