REMARK SMILES N#Cc1ccc(CN2CC3CN(CCNS(=O)(=O)c4cccc(C#N)c4)CC(C2)O3)cc1
REMARK SMILES IDX 27 1 12 2 13 3 14 4 15 5 16 7 17 8 18 9 19 10 26 11 20 12
REMARK SMILES IDX 23 13 21 14 22 15 24 16 25 17 11 18 28 20 30 22 10 23 9 25
REMARK SMILES IDX 8 26 29 27 7 29 6 30 5 31 31 32 4 33 32 34 3 35 2 36 1 37
REMARK H PARENT 15 6
REMARK Flexibility Score: 170.00
ROOT
ATOM      1  C   UNL     1      -0.310  -1.392   0.406  1.00  0.00     0.118 C 
ENDROOT
BRANCH   1   2
ATOM      2  N   UNL     1      -0.832  -0.003   0.537  1.00  0.00    -0.297 NA
BRANCH   2   3
ATOM      3  C   UNL     1      -1.635   0.400  -0.637  1.00  0.00     0.101 C 
BRANCH   3   4
ATOM      4  C   UNL     1      -3.033  -0.246  -0.637  1.00  0.00     0.114 C 
BRANCH   4   5
ATOM      5  N   UNL     1      -3.820   0.209  -1.786  1.00  0.00    -0.210 NA
ATOM      6  H   UNL     1      -3.496   0.029  -2.736  1.00  0.00     0.141 HD
BRANCH   5   7
ATOM      7  S   UNL     1      -4.929   1.446  -1.622  1.00  0.00     0.240 S 
ATOM      8  O   UNL     1      -4.371   2.445  -0.740  1.00  0.00    -0.207 OA
ATOM      9  O   UNL     1      -5.378   1.772  -2.957  1.00  0.00    -0.207 OA
BRANCH   7  10
ATOM     10  C   UNL     1      -6.268   0.632  -0.787  1.00  0.00     0.083 A 
ATOM     11  C   UNL     1      -6.440   0.815   0.589  1.00  0.00     0.041 A 
ATOM     12  C   UNL     1      -7.156  -0.163  -1.522  1.00  0.00     0.022 A 
ATOM     13  C   UNL     1      -7.496   0.174   1.241  1.00  0.00     0.053 A 
ATOM     14  C   UNL     1      -8.213  -0.795  -0.869  1.00  0.00     0.003 A 
ATOM     15  C   UNL     1      -8.378  -0.633   0.511  1.00  0.00     0.019 A 
BRANCH  13  16
ATOM     16  C   UNL     1      -7.669   0.331   2.655  1.00  0.00     0.099 C 
ATOM     17  N   UNL     1      -7.795   0.446   3.801  1.00  0.00    -0.192 NA
ENDBRANCH  13  16
ENDBRANCH   7  10
ENDBRANCH   5   7
ENDBRANCH   4   5
ENDBRANCH   3   4
ENDBRANCH   2   3
BRANCH   2  18
ATOM     18  C   UNL     1       0.293   0.943   0.735  1.00  0.00     0.118 CG0
ATOM     19  G   UNL     1       1.491   0.789  -0.254  1.00  0.00     0.000 G0
ENDBRANCH   2  18
ENDBRANCH   1   2
BRANCH   1  20
ATOM     20  C   UNL     1       1.165  -1.505  -0.053  1.00  0.00     0.146 CG1
ATOM     21  G   UNL     1       2.169  -1.440   1.139  1.00  0.00     0.000 G1
BRANCH  20  22
ATOM     22  O   UNL     1       1.399  -0.443  -1.001  1.00  0.00    -0.370 OA
BRANCH  22  23
ATOM     23  C   UNL     1       1.491   0.789  -0.254  1.00  0.00     0.146 CG0
ATOM     24  G   UNL     1       0.293   0.943   0.735  1.00  0.00     0.000 G0
BRANCH  23  25
ATOM     25  C   UNL     1       2.863   0.790   0.472  1.00  0.00     0.118 C 
BRANCH  25  26
ATOM     26  N   UNL     1       3.330  -0.545   0.944  1.00  0.00    -0.294 NA
BRANCH  26  27
ATOM     27  C   UNL     1       2.169  -1.440   1.139  1.00  0.00     0.118 CG1
ATOM     28  G   UNL     1       1.165  -1.505  -0.053  1.00  0.00     0.000 G1
ENDBRANCH  26  27
BRANCH  26  29
ATOM     29  C   UNL     1       4.279  -1.150  -0.012  1.00  0.00     0.120 C 
BRANCH  29  30
ATOM     30  C   UNL     1       5.656  -0.513   0.043  1.00  0.00    -0.034 A 
ATOM     31  C   UNL     1       6.338  -0.392   1.264  1.00  0.00     0.006 A 
ATOM     32  C   UNL     1       6.284  -0.076  -1.131  1.00  0.00     0.006 A 
ATOM     33  C   UNL     1       7.617   0.168   1.312  1.00  0.00     0.020 A 
ATOM     34  C   UNL     1       7.565   0.481  -1.084  1.00  0.00     0.020 A 
ATOM     35  C   UNL     1       8.234   0.605   0.138  1.00  0.00     0.052 A 
BRANCH  35  36
ATOM     36  C   UNL     1       9.547   1.175   0.185  1.00  0.00     0.099 C 
ATOM     37  N   UNL     1      10.613   1.633   0.227  1.00  0.00    -0.192 NA
ENDBRANCH  35  36
ENDBRANCH  29  30
ENDBRANCH  26  29
ENDBRANCH  25  26
ENDBRANCH  23  25
ENDBRANCH  22  23
ENDBRANCH  20  22
ENDBRANCH   1  20
TORSDOF 9
