REMARK SMILES O=C(Nc1ccc(OC(F)(F)F)cc1)N1CCC2(CC1)CN(C(=O)c1c(F)cccc1F)CCO2
REMARK SMILES IDX 17 1 18 2 21 4 22 5 23 6 24 7 25 8 27 9 26 10 28 11 31 12
REMARK SMILES IDX 29 13 32 14 30 15 33 16 35 18 34 19 16 21 15 22 2 23 1 24
REMARK SMILES IDX 3 25 20 27 19 28 4 30 5 31 14 32 6 33 13 34 7 35 8 36 9 37
REMARK SMILES IDX 10 38 11 39 12 40
REMARK H PARENT 3 26
REMARK Flexibility Score: 180.00
ROOT
ATOM      1  C   UNL     1      -1.061   0.680  -0.083  1.00  0.00     0.059 C 
ENDROOT
BRANCH   1   2
ATOM      2  C   UNL     1      -1.397  -0.748  -0.554  1.00  0.00     0.089 CG1
ATOM      3  G   UNL     1      -0.179  -1.328  -1.294  1.00  0.00     0.000 G1
BRANCH   2   4
ATOM      4  C   UNL     1      -2.613  -0.726  -1.518  1.00  0.00     0.155 C 
BRANCH   4   5
ATOM      5  N   UNL     1      -3.862  -0.408  -0.826  1.00  0.00    -0.333 N 
BRANCH   5   6
ATOM      6  C   UNL     1      -4.844   0.306  -1.499  1.00  0.00     0.260 C 
ATOM      7  O   UNL     1      -4.753   0.651  -2.674  1.00  0.00    -0.269 OA
BRANCH   6   8
ATOM      8  C   UNL     1      -6.058   0.685  -0.772  1.00  0.00     0.111 A 
ATOM      9  F   UNL     1      -4.856   2.263   0.535  1.00  0.00    -0.206 F 
ATOM     10  C   UNL     1      -6.014   1.674   0.206  1.00  0.00     0.138 A 
ATOM     11  C   UNL     1      -7.176   2.065   0.868  1.00  0.00     0.040 A 
ATOM     12  C   UNL     1      -7.274   0.097  -1.101  1.00  0.00     0.138 A 
ATOM     13  C   UNL     1      -8.395   1.467   0.543  1.00  0.00     0.006 A 
ATOM     14  F   UNL     1      -7.344  -0.867  -2.030  1.00  0.00    -0.206 F 
ATOM     15  C   UNL     1      -8.443   0.480  -0.445  1.00  0.00     0.040 A 
ENDBRANCH   6   8
ENDBRANCH   5   6
BRANCH   5  16
ATOM     16  C   UNL     1      -3.996  -0.954   0.526  1.00  0.00     0.148 CG0
ATOM     17  G   UNL     1      -2.954  -2.041   0.790  1.00  0.00     0.000 G0
ENDBRANCH   5  16
ENDBRANCH   4   5
ENDBRANCH   2   4
BRANCH   2  18
ATOM     18  O   UNL     1      -1.615  -1.568   0.619  1.00  0.00    -0.371 OA
BRANCH  18  19
ATOM     19  C   UNL     1      -2.954  -2.041   0.790  1.00  0.00     0.182 CG0
ATOM     20  G   UNL     1      -3.996  -0.954   0.526  1.00  0.00     0.000 G0
ENDBRANCH  18  19
ENDBRANCH   2  18
ENDBRANCH   1   2
BRANCH   1  21
ATOM     21  C   UNL     1       0.230   0.728   0.727  1.00  0.00     0.124 C 
BRANCH  21  22
ATOM     22  N   UNL     1       1.349   0.120   0.010  1.00  0.00    -0.324 N 
ATOM     23  C   UNL     1       2.629   0.512   0.439  1.00  0.00     0.321 C 
ATOM     24  O   UNL     1       2.792   1.289   1.376  1.00  0.00    -0.248 OA
ATOM     25  N   UNL     1       3.646  -0.019  -0.327  1.00  0.00    -0.308 N 
ATOM     26  H   UNL     1       3.374  -0.261  -1.266  1.00  0.00     0.171 HD
BRANCH  22  27
ATOM     27  C   UNL     1       1.095  -1.244  -0.458  1.00  0.00     0.124 C 
BRANCH  27  28
ATOM     28  C   UNL     1      -0.179  -1.328  -1.294  1.00  0.00     0.059 CG1
ATOM     29  G   UNL     1      -1.397  -0.748  -0.554  1.00  0.00     0.000 G1
ENDBRANCH  27  28
ENDBRANCH  22  27
BRANCH  25  30
ATOM     30  C   UNL     1       5.030   0.059  -0.077  1.00  0.00     0.043 A 
ATOM     31  C   UNL     1       5.895  -0.291  -1.117  1.00  0.00     0.030 A 
ATOM     32  C   UNL     1       5.575   0.431   1.151  1.00  0.00     0.030 A 
ATOM     33  C   UNL     1       7.280  -0.247  -0.931  1.00  0.00     0.049 A 
ATOM     34  C   UNL     1       6.964   0.473   1.339  1.00  0.00     0.049 A 
ATOM     35  C   UNL     1       7.825   0.137   0.297  1.00  0.00     0.129 A 
BRANCH  35  36
ATOM     36  O   UNL     1       9.189   0.137   0.335  1.00  0.00    -0.406 OA
BRANCH  36  37
ATOM     37  C   UNL     1       9.814   0.482   1.558  1.00  0.00     0.573 C 
ATOM     38  F   UNL     1      11.154   0.411   1.390  1.00  0.00    -0.132 F 
ATOM     39  F   UNL     1       9.471  -0.376   2.542  1.00  0.00    -0.132 F 
ATOM     40  F   UNL     1       9.506   1.742   1.928  1.00  0.00    -0.132 F 
ENDBRANCH  36  37
ENDBRANCH  35  36
ENDBRANCH  25  30
ENDBRANCH  21  22
ENDBRANCH   1  21
TORSDOF 5
