REMARK SMILES CN(CCN1CC2CN(Cc3ccc(C#N)cc3F)CC(C1)O2)S(=O)(=O)c1ccc(C#N)cc1
REMARK SMILES IDX 6 1 5 2 4 3 3 4 2 5 1 6 24 7 25 8 26 9 27 10 28 11 34 12
REMARK SMILES IDX 29 13 33 14 30 15 31 16 32 17 22 18 7 20 23 22 21 23 20 25
REMARK SMILES IDX 9 26 8 27 10 29 11 30 18 31 12 32 19 33 17 34 13 35 14 36
REMARK SMILES IDX 15 37 16 38
REMARK H PARENT
REMARK Flexibility Score: 170.00
ROOT
ATOM      1  C   UNL     1      -0.615   1.831   0.259  1.00  0.00     0.118 C 
ENDROOT
BRANCH   1   2
ATOM      2  N   UNL     1       0.607   1.075  -0.092  1.00  0.00    -0.297 NA
BRANCH   2   3
ATOM      3  C   UNL     1       1.396   0.758   1.120  1.00  0.00     0.101 C 
BRANCH   3   4
ATOM      4  C   UNL     1       2.892   0.490   0.828  1.00  0.00     0.117 C 
BRANCH   4   5
ATOM      5  N   UNL     1       3.148  -0.924   0.447  1.00  0.00    -0.200 NA
ATOM      6  C   UNL     1       3.338  -1.828   1.594  1.00  0.00     0.124 C 
BRANCH   5   7
ATOM      7  S   UNL     1       4.118  -1.199  -0.920  1.00  0.00     0.242 S 
ATOM      8  O   UNL     1       4.191  -2.629  -1.142  1.00  0.00    -0.207 OA
ATOM      9  O   UNL     1       3.698  -0.307  -1.977  1.00  0.00    -0.207 OA
BRANCH   7  10
ATOM     10  C   UNL     1       5.734  -0.666  -0.382  1.00  0.00     0.082 A 
ATOM     11  C   UNL     1       6.605  -1.589   0.205  1.00  0.00     0.023 A 
ATOM     12  C   UNL     1       6.140   0.653  -0.607  1.00  0.00     0.023 A 
ATOM     13  C   UNL     1       7.879  -1.177   0.602  1.00  0.00     0.021 A 
ATOM     14  C   UNL     1       7.416   1.061  -0.207  1.00  0.00     0.021 A 
ATOM     15  C   UNL     1       8.286   0.149   0.403  1.00  0.00     0.052 A 
BRANCH  15  16
ATOM     16  C   UNL     1       9.594   0.564   0.820  1.00  0.00     0.099 C 
ATOM     17  N   UNL     1      10.653   0.882   1.176  1.00  0.00    -0.192 NA
ENDBRANCH  15  16
ENDBRANCH   7  10
ENDBRANCH   5   7
ENDBRANCH   4   5
ENDBRANCH   3   4
ENDBRANCH   2   3
BRANCH   2  18
ATOM     18  C   UNL     1       0.229  -0.158  -0.841  1.00  0.00     0.118 CG0
ATOM     19  G   UNL     1      -1.202  -0.689  -0.563  1.00  0.00     0.000 G0
ENDBRANCH   2  18
ENDBRANCH   1   2
BRANCH   1  20
ATOM     20  C   UNL     1      -1.752   1.004   0.934  1.00  0.00     0.146 CG1
ATOM     21  G   UNL     1      -3.140   1.289   0.303  1.00  0.00     0.000 G1
BRANCH  20  22
ATOM     22  O   UNL     1      -1.507  -0.413   0.822  1.00  0.00    -0.370 OA
BRANCH  22  23
ATOM     23  C   UNL     1      -1.202  -0.689  -0.563  1.00  0.00     0.146 CG0
ATOM     24  G   UNL     1       0.229  -0.158  -0.841  1.00  0.00     0.000 G0
BRANCH  23  25
ATOM     25  C   UNL     1      -2.270  -0.061  -1.511  1.00  0.00     0.118 C 
BRANCH  25  26
ATOM     26  N   UNL     1      -3.505   0.412  -0.843  1.00  0.00    -0.294 NA
BRANCH  26  27
ATOM     27  C   UNL     1      -3.140   1.289   0.303  1.00  0.00     0.118 CG1
ATOM     28  G   UNL     1      -1.752   1.004   0.934  1.00  0.00     0.000 G1
ENDBRANCH  26  27
BRANCH  26  29
ATOM     29  C   UNL     1      -4.326  -0.741  -0.418  1.00  0.00     0.123 C 
BRANCH  29  30
ATOM     30  C   UNL     1      -5.780  -0.369  -0.214  1.00  0.00     0.002 A 
ATOM     31  C   UNL     1      -6.633  -0.235  -1.314  1.00  0.00     0.129 A 
ATOM     32  C   UNL     1      -6.303  -0.142   1.067  1.00  0.00     0.009 A 
ATOM     33  F   UNL     1      -6.176  -0.473  -2.552  1.00  0.00    -0.207 F 
ATOM     34  C   UNL     1      -7.971   0.123  -1.159  1.00  0.00     0.059 A 
ATOM     35  C   UNL     1      -7.644   0.226   1.232  1.00  0.00     0.020 A 
ATOM     36  C   UNL     1      -8.479   0.360   0.119  1.00  0.00     0.055 A 
BRANCH  36  37
ATOM     37  C   UNL     1      -9.851   0.738   0.291  1.00  0.00     0.099 C 
ATOM     38  N   UNL     1     -10.961   1.041   0.441  1.00  0.00    -0.192 NA
ENDBRANCH  36  37
ENDBRANCH  29  30
ENDBRANCH  26  29
ENDBRANCH  25  26
ENDBRANCH  23  25
ENDBRANCH  22  23
ENDBRANCH  20  22
ENDBRANCH   1  20
TORSDOF 9
