REMARK SMILES Cn1cc(-c2cc(C(N)=O)nc3cc(CN4CCO[C@H](C(F)(F)F)C4)ccc23)cn1
REMARK SMILES IDX 17 1 18 2 19 3 20 4 21 6 22 7 23 8 24 9 16 10 25 11 15 13
REMARK SMILES IDX 14 14 13 15 26 16 12 17 27 18 11 19 28 20 7 21 5 22 6 23
REMARK SMILES IDX 8 24 10 25 9 26 4 29 29 30 3 31 30 32 2 33 1 34
REMARK H PARENT 9 27 9 28
REMARK Flexibility Score: 80.00
ROOT
ATOM      1  C   UNL     1      -3.493  -0.358   1.210  1.00  0.00     0.113 C 
ENDROOT
BRANCH   1   2
ATOM      2  C   UNL     1      -4.277   0.788   1.870  1.00  0.00     0.176 C 
BRANCH   2   3
ATOM      3  O   UNL     1      -5.610   0.876   1.352  1.00  0.00    -0.366 OA
BRANCH   3   4
ATOM      4  C   UNL     1      -5.605   1.052  -0.084  1.00  0.00     0.237 CG0
ATOM      5  G   UNL     1      -4.837  -0.099  -0.764  1.00  0.00     0.000 G0
BRANCH   4   6
ATOM      6  C   UNL     1      -7.028   1.109  -0.644  1.00  0.00     0.415 C 
ATOM      7  F   UNL     1      -7.004   1.323  -1.983  1.00  0.00    -0.168 F 
ATOM      8  F   UNL     1      -7.735   2.126  -0.098  1.00  0.00    -0.168 F 
ATOM      9  F   UNL     1      -7.713  -0.035  -0.430  1.00  0.00    -0.168 F 
ENDBRANCH   4   6
ENDBRANCH   3   4
ENDBRANCH   2   3
ENDBRANCH   1   2
BRANCH   1  10
ATOM     10  N   UNL     1      -3.452  -0.282  -0.266  1.00  0.00    -0.294 NA
BRANCH  10  11
ATOM     11  C   UNL     1      -4.837  -0.099  -0.764  1.00  0.00     0.126 CG0
ATOM     12  G   UNL     1      -5.605   1.052  -0.084  1.00  0.00     0.000 G0
ENDBRANCH  10  11
BRANCH  10  13
ATOM     13  C   UNL     1      -2.548   0.763  -0.772  1.00  0.00     0.120 C 
BRANCH  13  14
ATOM     14  C   UNL     1      -1.089   0.458  -0.512  1.00  0.00    -0.032 A 
ATOM     15  C   UNL     1      -0.498  -0.698  -1.048  1.00  0.00     0.034 A 
ATOM     16  C   UNL     1      -0.298   1.321   0.245  1.00  0.00     0.006 A 
ATOM     17  C   UNL     1       0.838  -1.017  -0.847  1.00  0.00     0.072 A 
ATOM     18  C   UNL     1       1.047   1.020   0.464  1.00  0.00     0.011 A 
ATOM     19  N   UNL     1       1.308  -2.138  -1.410  1.00  0.00    -0.243 NA
ATOM     20  C   UNL     1       1.637  -0.153  -0.069  1.00  0.00     0.008 A 
ATOM     21  C   UNL     1       2.610  -2.459  -1.227  1.00  0.00     0.129 A 
ATOM     22  C   UNL     1       2.995  -0.525   0.109  1.00  0.00    -0.003 A 
ATOM     23  C   UNL     1       3.485  -1.689  -0.484  1.00  0.00     0.043 A 
BRANCH  21  24
ATOM     24  C   UNL     1       3.074  -3.723  -1.887  1.00  0.00     0.267 C 
ATOM     25  O   UNL     1       2.605  -4.135  -2.940  1.00  0.00    -0.268 OA
ATOM     26  N   UNL     1       4.055  -4.442  -1.245  1.00  0.00    -0.364 N 
ATOM     27  H   UNL     1       4.221  -4.332  -0.254  1.00  0.00     0.160 HD
ATOM     28  H   UNL     1       4.226  -5.360  -1.637  1.00  0.00     0.160 HD
ENDBRANCH  21  24
BRANCH  22  29
ATOM     29  C   UNL     1       3.912   0.264   0.909  1.00  0.00     0.020 A 
ATOM     30  C   UNL     1       3.929   0.542   2.292  1.00  0.00     0.143 A 
ATOM     31  C   UNL     1       5.021   0.912   0.411  1.00  0.00     0.117 A 
ATOM     32  N   UNL     1       4.958   1.319   2.641  1.00  0.00    -0.181 NA
ATOM     33  N   UNL     1       5.605   1.531   1.479  1.00  0.00    -0.275 N 
ATOM     34  C   UNL     1       6.793   2.350   1.467  1.00  0.00     0.173 C 
ENDBRANCH  22  29
ENDBRANCH  13  14
ENDBRANCH  10  13
ENDBRANCH   1  10
TORSDOF 5
