REMARK SMILES COc1cc(N)c(Cl)cc1C(=O)NC[C@H]1CN(Cc2ccc(C#N)cc2)CCO1
REMARK SMILES IDX 16 1 15 2 14 3 13 4 11 5 12 6 10 8 8 9 7 10 5 11 9 12 4 13
REMARK SMILES IDX 3 14 6 15 2 18 1 19 29 20 28 21 17 23 18 24 19 25 20 26
REMARK SMILES IDX 26 27 21 28 25 29 22 30 23 31 24 32 27 33
REMARK H PARENT 13 7 6 16 6 17
REMARK Flexibility Score: 90.00
ROOT
ATOM      1  C   UNL     1       2.026  -0.302   0.407  1.00  0.00     0.118 C 
ENDROOT
BRANCH   1   2
ATOM      2  C   UNL     1       0.624   0.195   0.833  1.00  0.00     0.151 C 
BRANCH   2   3
ATOM      3  C   UNL     1      -0.466  -0.755   0.321  1.00  0.00     0.149 C 
BRANCH   3   4
ATOM      4  N   UNL     1      -1.793  -0.227   0.581  1.00  0.00    -0.349 N 
ATOM      5  C   UNL     1      -2.922  -0.999   0.429  1.00  0.00     0.255 C 
ATOM      6  O   UNL     1      -2.868  -2.222   0.317  1.00  0.00    -0.269 OA
ATOM      7  H   UNL     1      -1.899   0.779   0.469  1.00  0.00     0.163 HD
BRANCH   5   8
ATOM      8  C   UNL     1      -4.249  -0.294   0.379  1.00  0.00     0.083 A 
ATOM      9  Cl  UNL     1      -8.019  -1.648   0.249  1.00  0.00    -0.082 Cl
ATOM     10  C   UNL     1      -6.662  -0.577   0.271  1.00  0.00     0.065 A 
ATOM     11  C   UNL     1      -6.845   0.810   0.169  1.00  0.00     0.054 A 
ATOM     12  C   UNL     1      -5.383  -1.126   0.351  1.00  0.00     0.040 A 
ATOM     13  C   UNL     1      -5.717   1.641   0.253  1.00  0.00     0.074 A 
ATOM     14  C   UNL     1      -4.419   1.109   0.345  1.00  0.00     0.133 A 
BRANCH  11  15
ATOM     15  N   UNL     1      -8.125   1.396   0.196  1.00  0.00    -0.397 N 
ATOM     16  H   UNL     1      -8.857   0.747  -0.097  1.00  0.00     0.156 HD
ATOM     17  H   UNL     1      -8.190   2.298  -0.272  1.00  0.00     0.156 HD
ENDBRANCH  11  15
BRANCH  14  18
ATOM     18  O   UNL     1      -3.292   1.894   0.400  1.00  0.00    -0.496 OA
ATOM     19  C   UNL     1      -3.453   3.307   0.495  1.00  0.00     0.278 C 
ENDBRANCH  14  18
ENDBRANCH   5   8
ENDBRANCH   3   4
ENDBRANCH   2   3
BRANCH   2  20
ATOM     20  O   UNL     1       0.393   1.506   0.271  1.00  0.00    -0.374 OA
BRANCH  20  21
ATOM     21  C   UNL     1       1.418   2.446   0.634  1.00  0.00     0.176 CG0
ATOM     22  G   UNL     1       2.609   1.843   1.403  1.00  0.00     0.000 G0
ENDBRANCH  20  21
ENDBRANCH   2  20
ENDBRANCH   1   2
BRANCH   1  23
ATOM     23  N   UNL     1       3.138   0.594   0.822  1.00  0.00    -0.294 NA
BRANCH  23  24
ATOM     24  C   UNL     1       4.053   0.883  -0.298  1.00  0.00     0.120 C 
BRANCH  24  25
ATOM     25  C   UNL     1       4.812  -0.337  -0.783  1.00  0.00    -0.034 A 
ATOM     26  C   UNL     1       5.680  -1.027   0.080  1.00  0.00     0.006 A 
ATOM     27  C   UNL     1       4.673  -0.781  -2.106  1.00  0.00     0.006 A 
ATOM     28  C   UNL     1       6.389  -2.146  -0.368  1.00  0.00     0.020 A 
ATOM     29  C   UNL     1       5.382  -1.898  -2.554  1.00  0.00     0.020 A 
ATOM     30  C   UNL     1       6.240  -2.585  -1.685  1.00  0.00     0.052 A 
BRANCH  30  31
ATOM     31  C   UNL     1       6.947  -3.745  -2.142  1.00  0.00     0.099 C 
ATOM     32  N   UNL     1       7.497  -4.696  -2.520  1.00  0.00    -0.192 NA
ENDBRANCH  30  31
ENDBRANCH  24  25
ENDBRANCH  23  24
BRANCH  23  33
ATOM     33  C   UNL     1       2.609   1.843   1.403  1.00  0.00     0.113 CG0
ATOM     34  G   UNL     1       1.418   2.446   0.634  1.00  0.00     0.000 G0
ENDBRANCH  23  33
ENDBRANCH   1  23
TORSDOF 8
