REMARK SMILES N#Cc1ccc(S(=O)(=O)NCCN2CC3CN(Cc4ccc(F)cc4)CC(C2)O3)cc1
REMARK SMILES IDX 14 1 13 2 12 3 11 4 10 5 7 7 8 8 9 9 6 10 5 11 30 12 4 13
REMARK SMILES IDX 31 14 3 15 2 16 1 17 28 18 15 20 29 22 27 23 26 25 17 26
REMARK SMILES IDX 16 27 18 29 19 30 20 31 25 32 21 33 24 34 22 35 23 36
REMARK H PARENT 10 6
REMARK Flexibility Score: 170.00
ROOT
ATOM      1  C   UNL     1       0.204  -1.186  -0.363  1.00  0.00     0.118 C 
ENDROOT
BRANCH   1   2
ATOM      2  N   UNL     1      -0.565  -0.024   0.145  1.00  0.00    -0.297 NA
BRANCH   2   3
ATOM      3  C   UNL     1      -1.606  -0.486   1.102  1.00  0.00     0.101 C 
BRANCH   3   4
ATOM      4  C   UNL     1      -2.713   0.569   1.332  1.00  0.00     0.114 C 
BRANCH   4   5
ATOM      5  N   UNL     1      -3.143   1.089   0.030  1.00  0.00    -0.210 NA
ATOM      6  H   UNL     1      -2.401   1.255  -0.654  1.00  0.00     0.141 HD
BRANCH   5   7
ATOM      7  S   UNL     1      -4.488   2.069  -0.081  1.00  0.00     0.240 S 
ATOM      8  O   UNL     1      -4.653   2.769   1.174  1.00  0.00    -0.207 OA
ATOM      9  O   UNL     1      -4.402   2.765  -1.346  1.00  0.00    -0.207 OA
BRANCH   7  10
ATOM     10  C   UNL     1      -5.785   0.856  -0.234  1.00  0.00     0.082 A 
ATOM     11  C   UNL     1      -6.700   0.665   0.805  1.00  0.00     0.023 A 
ATOM     12  C   UNL     1      -5.861   0.094  -1.405  1.00  0.00     0.023 A 
ATOM     13  C   UNL     1      -7.689  -0.318   0.678  1.00  0.00     0.021 A 
ATOM     14  C   UNL     1      -6.849  -0.886  -1.527  1.00  0.00     0.021 A 
ATOM     15  C   UNL     1      -7.759  -1.101  -0.484  1.00  0.00     0.052 A 
BRANCH  15  16
ATOM     16  C   UNL     1      -8.754  -2.129  -0.600  1.00  0.00     0.099 C 
ATOM     17  N   UNL     1      -9.546  -2.975  -0.692  1.00  0.00    -0.192 NA
ENDBRANCH  15  16
ENDBRANCH   7  10
ENDBRANCH   5   7
ENDBRANCH   4   5
ENDBRANCH   3   4
ENDBRANCH   2   3
BRANCH   2  18
ATOM     18  C   UNL     1       0.365   0.954   0.788  1.00  0.00     0.118 CG0
ATOM     19  G   UNL     1       1.715   0.363   1.276  1.00  0.00     0.000 G0
ENDBRANCH   2  18
ENDBRANCH   1   2
BRANCH   1  20
ATOM     20  C   UNL     1       1.225  -1.819   0.634  1.00  0.00     0.146 CG1
ATOM     21  G   UNL     1       2.602  -2.072  -0.028  1.00  0.00     0.000 G1
BRANCH  20  22
ATOM     22  O   UNL     1       1.440  -0.964   1.774  1.00  0.00    -0.370 OA
BRANCH  22  23
ATOM     23  C   UNL     1       1.715   0.363   1.276  1.00  0.00     0.146 CG0
ATOM     24  G   UNL     1       0.365   0.954   0.788  1.00  0.00     0.000 G0
BRANCH  23  25
ATOM     25  C   UNL     1       2.803   0.359   0.153  1.00  0.00     0.118 C 
BRANCH  25  26
ATOM     26  N   UNL     1       3.529  -0.918   0.045  1.00  0.00    -0.294 NA
BRANCH  26  27
ATOM     27  C   UNL     1       2.602  -2.072  -0.028  1.00  0.00     0.118 CG1
ATOM     28  G   UNL     1       1.225  -1.819   0.634  1.00  0.00     0.000 G1
ENDBRANCH  26  27
BRANCH  26  29
ATOM     29  C   UNL     1       4.500  -0.945  -1.052  1.00  0.00     0.120 C 
BRANCH  29  30
ATOM     30  C   UNL     1       5.676  -0.012  -0.840  1.00  0.00    -0.034 A 
ATOM     31  C   UNL     1       6.501  -0.157   0.290  1.00  0.00     0.008 A 
ATOM     32  C   UNL     1       5.977   0.986  -1.782  1.00  0.00     0.008 A 
ATOM     33  C   UNL     1       7.606   0.676   0.472  1.00  0.00     0.039 A 
ATOM     34  C   UNL     1       7.086   1.816  -1.599  1.00  0.00     0.039 A 
ATOM     35  C   UNL     1       7.891   1.651  -0.477  1.00  0.00     0.123 A 
ATOM     36  F   UNL     1       8.958   2.442  -0.311  1.00  0.00    -0.207 F 
ENDBRANCH  29  30
ENDBRANCH  26  29
ENDBRANCH  25  26
ENDBRANCH  23  25
ENDBRANCH  22  23
ENDBRANCH  20  22
ENDBRANCH   1  20
TORSDOF 8
