REMARK SMILES C[C@@H](NS(C)(=O)=O)c1ccc(CN2CCO[C@@H](c3ccccc3)C2)cc1
REMARK SMILES IDX 13 1 12 2 11 3 8 4 9 5 26 6 10 7 25 8 2 9 1 10 3 11 4 13
REMARK SMILES IDX 6 14 7 15 5 16 24 17 14 19 15 20 16 21 17 22 18 24 19 25
REMARK SMILES IDX 23 26 20 27 22 28 21 29
REMARK H PARENT 3 12
REMARK Flexibility Score: 80.00
ROOT
ATOM      1  N   UNL     1      -1.236  -2.216  -0.732  1.00  0.00    -0.294 NA
ENDROOT
BRANCH   1   2
ATOM      2  C   UNL     1      -0.008  -2.381   0.060  1.00  0.00     0.120 C 
BRANCH   2   3
ATOM      3  C   UNL     1       0.946  -1.209  -0.045  1.00  0.00    -0.034 A 
ATOM      4  C   UNL     1       2.748   0.961  -0.242  1.00  0.00    -0.030 A 
ATOM      5  C   UNL     1       2.402   0.211  -1.375  1.00  0.00     0.006 A 
ATOM      6  C   UNL     1       2.166   0.622   0.989  1.00  0.00     0.006 A 
ATOM      7  C   UNL     1       1.514  -0.863  -1.277  1.00  0.00     0.005 A 
ATOM      8  C   UNL     1       1.279  -0.454   1.086  1.00  0.00     0.005 A 
BRANCH   4   9
ATOM      9  C   UNL     1       3.726   2.112  -0.373  1.00  0.00     0.096 C 
ATOM     10  C   UNL     1       2.994   3.451  -0.264  1.00  0.00     0.031 C 
BRANCH   9  11
ATOM     11  N   UNL     1       4.781   2.086   0.640  1.00  0.00    -0.208 NA
ATOM     12  H   UNL     1       4.547   2.321   1.603  1.00  0.00     0.141 HD
BRANCH  11  13
ATOM     13  S   UNL     1       6.171   1.201   0.428  1.00  0.00     0.209 S 
ATOM     14  O   UNL     1       7.012   1.529   1.561  1.00  0.00    -0.213 OA
ATOM     15  O   UNL     1       6.632   1.378  -0.933  1.00  0.00    -0.213 OA
ATOM     16  C   UNL     1       5.634  -0.488   0.630  1.00  0.00     0.176 C 
ENDBRANCH  11  13
ENDBRANCH   9  11
ENDBRANCH   4   9
ENDBRANCH   2   3
ENDBRANCH   1   2
BRANCH   1  17
ATOM     17  C   UNL     1      -2.022  -1.040  -0.280  1.00  0.00     0.122 CG0
ATOM     18  G   UNL     1      -3.542  -1.185  -0.558  1.00  0.00     0.000 G0
ENDBRANCH   1  17
BRANCH   1  19
ATOM     19  C   UNL     1      -2.072  -3.436  -0.687  1.00  0.00     0.113 C 
BRANCH  19  20
ATOM     20  C   UNL     1      -3.180  -3.370   0.375  1.00  0.00     0.176 C 
BRANCH  20  21
ATOM     21  O   UNL     1      -4.116  -2.304   0.152  1.00  0.00    -0.371 OA
BRANCH  21  22
ATOM     22  C   UNL     1      -3.542  -1.185  -0.558  1.00  0.00     0.162 CG0
ATOM     23  G   UNL     1      -2.022  -1.040  -0.280  1.00  0.00     0.000 G0
BRANCH  22  24
ATOM     24  C   UNL     1      -4.286   0.079  -0.170  1.00  0.00    -0.018 A 
ATOM     25  C   UNL     1      -4.591   0.361   1.171  1.00  0.00     0.006 A 
ATOM     26  C   UNL     1      -4.641   1.016  -1.155  1.00  0.00     0.006 A 
ATOM     27  C   UNL     1      -5.239   1.549   1.519  1.00  0.00     0.000 A 
ATOM     28  C   UNL     1      -5.290   2.203  -0.806  1.00  0.00     0.000 A 
ATOM     29  C   UNL     1      -5.587   2.470   0.532  1.00  0.00     0.000 A 
ENDBRANCH  22  24
ENDBRANCH  21  22
ENDBRANCH  20  21
ENDBRANCH  19  20
ENDBRANCH   1  19
TORSDOF 6
