REMARK SMILES Cc1ccc(-n2nccn2)c(C(=O)N2CCO[C@@H](C)[C@H]2Cc2cccc(-n3nccn3)c2)c1
REMARK SMILES IDX 20 1 14 2 12 3 13 4 11 5 5 6 33 7 4 8 2 9 3 10 1 11 6 12
REMARK SMILES IDX 7 13 10 14 8 15 9 16 15 17 18 19 19 20 17 21 16 22 21 24
REMARK SMILES IDX 22 25 32 26 23 27 26 28 24 29 25 30 27 31 28 32 31 33 29 34
REMARK SMILES IDX 30 35
REMARK H PARENT
REMARK Flexibility Score: 90.00
ROOT
ATOM      1  C   UNL     1       0.554   0.808   0.223  1.00  0.00     0.118 C 
ENDROOT
BRANCH   1   2
ATOM      2  N   UNL     1      -0.904   0.902   0.498  1.00  0.00    -0.330 N 
BRANCH   2   3
ATOM      3  C   UNL     1      -1.792   0.886  -0.583  1.00  0.00     0.256 C 
ATOM      4  O   UNL     1      -1.444   0.905  -1.761  1.00  0.00    -0.269 OA
BRANCH   3   5
ATOM      5  C   UNL     1      -3.245   0.934  -0.306  1.00  0.00     0.067 A 
ATOM      6  C   UNL     1      -3.976  -0.076   0.338  1.00  0.00     0.098 A 
ATOM      7  C   UNL     1      -3.883   2.126  -0.700  1.00  0.00     0.019 A 
ATOM      8  C   UNL     1      -5.332   0.162   0.636  1.00  0.00     0.031 A 
ATOM      9  C   UNL     1      -5.239   2.341  -0.429  1.00  0.00    -0.050 A 
ATOM     10  C   UNL     1      -5.951   1.359   0.263  1.00  0.00     0.006 A 
ATOM     11  C   UNL     1      -5.898   3.630  -0.821  1.00  0.00     0.044 C 
BRANCH   6  12
ATOM     12  N   UNL     1      -3.425  -1.343   0.673  1.00  0.00    -0.151 N 
ATOM     13  N   UNL     1      -2.191  -1.758   0.293  1.00  0.00    -0.157 NA
ATOM     14  N   UNL     1      -4.144  -2.259   1.392  1.00  0.00    -0.157 NA
ATOM     15  C   UNL     1      -2.128  -2.995   0.782  1.00  0.00     0.157 A 
ATOM     16  C   UNL     1      -3.312  -3.299   1.450  1.00  0.00     0.157 A 
ENDBRANCH   6  12
ENDBRANCH   3   5
ENDBRANCH   2   3
BRANCH   2  17
ATOM     17  C   UNL     1      -1.271   1.487   1.792  1.00  0.00     0.148 CG0
ATOM     18  G   UNL     1      -0.283   2.591   2.162  1.00  0.00     0.000 G0
ENDBRANCH   2  17
ENDBRANCH   1   2
BRANCH   1  19
ATOM     19  C   UNL     1       1.414   0.982   1.522  1.00  0.00     0.138 C 
ATOM     20  C   UNL     1       1.454  -0.232   2.455  1.00  0.00     0.041 C 
BRANCH  19  21
ATOM     21  O   UNL     1       1.056   2.126   2.323  1.00  0.00    -0.375 OA
BRANCH  21  22
ATOM     22  C   UNL     1      -0.283   2.591   2.162  1.00  0.00     0.182 CG0
ATOM     23  G   UNL     1      -1.271   1.487   1.792  1.00  0.00     0.000 G0
ENDBRANCH  21  22
ENDBRANCH  19  21
ENDBRANCH   1  19
BRANCH   1  24
ATOM     24  C   UNL     1       0.938  -0.484  -0.553  1.00  0.00     0.063 C 
BRANCH  24  25
ATOM     25  C   UNL     1       2.340  -0.458  -1.125  1.00  0.00    -0.044 A 
ATOM     26  C   UNL     1       3.325  -1.340  -0.659  1.00  0.00     0.034 A 
ATOM     27  C   UNL     1       2.664   0.442  -2.151  1.00  0.00     0.004 A 
ATOM     28  C   UNL     1       4.623  -1.303  -1.193  1.00  0.00     0.086 A 
ATOM     29  C   UNL     1       3.952   0.480  -2.685  1.00  0.00     0.003 A 
ATOM     30  C   UNL     1       4.935  -0.387  -2.207  1.00  0.00     0.030 A 
BRANCH  28  31
ATOM     31  N   UNL     1       5.617  -2.192  -0.708  1.00  0.00    -0.152 N 
ATOM     32  N   UNL     1       6.891  -2.196  -1.194  1.00  0.00    -0.157 NA
ATOM     33  N   UNL     1       5.364  -3.097   0.282  1.00  0.00    -0.157 NA
ATOM     34  C   UNL     1       7.468  -3.157  -0.471  1.00  0.00     0.157 A 
ATOM     35  C   UNL     1       6.544  -3.701   0.422  1.00  0.00     0.157 A 
ENDBRANCH  28  31
ENDBRANCH  24  25
ENDBRANCH   1  24
TORSDOF 6
