REMARK SMILES N#Cc1ccccc1-c1ccc(CN2CCO[C@@H](c3ccccc3)C2)cc1
REMARK SMILES IDX 14 1 25 2 18 3 17 4 16 5 19 7 20 8 24 9 21 10 23 11 22 12
REMARK SMILES IDX 15 13 13 15 12 16 11 17 26 18 10 19 27 20 9 21 8 22 3 23
REMARK SMILES IDX 7 24 4 25 6 26 5 27 2 28 1 29
REMARK H PARENT
REMARK Flexibility Score: 90.00
ROOT
ATOM      1  N   UNL     1      -1.304  -0.456  -0.219  1.00  0.00    -0.294 NA
ENDROOT
BRANCH   1   2
ATOM      2  C   UNL     1      -2.724  -0.604   0.178  1.00  0.00     0.122 C 
BRANCH   2   3
ATOM      3  C   UNL     1      -3.623   0.592  -0.234  1.00  0.00     0.162 C 
BRANCH   3   4
ATOM      4  O   UNL     1      -3.603   0.845  -1.653  1.00  0.00    -0.371 OA
BRANCH   4   5
ATOM      5  C   UNL     1      -2.430   0.338  -2.302  1.00  0.00     0.176 CG0
ATOM      6  G   UNL     1      -1.187   0.422  -1.406  1.00  0.00     0.000 G0
ENDBRANCH   4   5
ENDBRANCH   3   4
BRANCH   3   7
ATOM      7  C   UNL     1      -5.055   0.371   0.214  1.00  0.00    -0.018 A 
ATOM      8  C   UNL     1      -5.955  -0.372  -0.565  1.00  0.00     0.006 A 
ATOM      9  C   UNL     1      -5.493   0.879   1.447  1.00  0.00     0.006 A 
ATOM     10  C   UNL     1      -7.262  -0.593  -0.126  1.00  0.00     0.000 A 
ATOM     11  C   UNL     1      -6.800   0.656   1.885  1.00  0.00     0.000 A 
ATOM     12  C   UNL     1      -7.684  -0.079   1.098  1.00  0.00     0.000 A 
ENDBRANCH   3   7
ENDBRANCH   2   3
ENDBRANCH   1   2
BRANCH   1  13
ATOM     13  C   UNL     1      -1.187   0.422  -1.406  1.00  0.00     0.113 CG0
ATOM     14  G   UNL     1      -2.430   0.338  -2.302  1.00  0.00     0.000 G0
ENDBRANCH   1  13
BRANCH   1  15
ATOM     15  C   UNL     1      -0.481   0.030   0.900  1.00  0.00     0.120 C 
BRANCH  15  16
ATOM     16  C   UNL     1       1.004   0.016   0.603  1.00  0.00    -0.034 A 
ATOM     17  C   UNL     1       1.756   1.196   0.661  1.00  0.00     0.006 A 
ATOM     18  C   UNL     1       1.654  -1.183   0.285  1.00  0.00     0.006 A 
ATOM     19  C   UNL     1       3.131   1.175   0.407  1.00  0.00     0.009 A 
ATOM     20  C   UNL     1       3.028  -1.203   0.031  1.00  0.00     0.009 A 
ATOM     21  C   UNL     1       3.786  -0.025   0.095  1.00  0.00    -0.017 A 
BRANCH  21  22
ATOM     22  C   UNL     1       5.233  -0.052  -0.168  1.00  0.00    -0.001 A 
ATOM     23  C   UNL     1       6.195   0.096   0.853  1.00  0.00     0.060 A 
ATOM     24  C   UNL     1       5.686  -0.238  -1.488  1.00  0.00     0.010 A 
ATOM     25  C   UNL     1       7.565   0.060   0.545  1.00  0.00     0.020 A 
ATOM     26  C   UNL     1       7.050  -0.273  -1.786  1.00  0.00     0.001 A 
ATOM     27  C   UNL     1       7.989  -0.124  -0.770  1.00  0.00     0.001 A 
BRANCH  23  28
ATOM     28  C   UNL     1       5.814   0.278   2.227  1.00  0.00     0.100 C 
ATOM     29  N   UNL     1       5.539   0.435   3.344  1.00  0.00    -0.192 NA
ENDBRANCH  23  28
ENDBRANCH  21  22
ENDBRANCH  15  16
ENDBRANCH   1  15
TORSDOF 5
