REMARK SMILES COc1cc2c(Nc3ccc(Cl)c(Cl)c3)ncnc2cc1OC[C@H]1CN(Cc2ccccc2)CCO1
REMARK SMILES IDX 23 1 22 2 21 3 6 4 16 5 5 6 17 7 19 8 4 9 18 10 20 11 3 12
REMARK SMILES IDX 7 13 8 15 14 16 13 17 11 18 15 19 12 20 10 21 9 22 2 23 1 24
REMARK SMILES IDX 24 25 36 26 35 27 25 29 26 30 27 31 28 32 29 33 33 34 30 35
REMARK SMILES IDX 32 36 31 37 34 38
REMARK H PARENT 7 14
REMARK Flexibility Score: 90.00
ROOT
ATOM      1  C   UNL     1      -1.439  -2.455   1.617  1.00  0.00     0.263 C 
ENDROOT
BRANCH   1   2
ATOM      2  O   UNL     1      -0.444  -1.551   2.100  1.00  0.00    -0.487 OA
BRANCH   2   3
ATOM      3  C   UNL     1       0.691  -1.305   1.374  1.00  0.00     0.163 A 
ATOM      4  C   UNL     1       4.231  -0.414  -0.744  1.00  0.00     0.141 A 
ATOM      5  N   UNL     1       4.519  -1.105  -1.862  1.00  0.00    -0.219 NA
ATOM      6  C   UNL     1       3.068  -0.667   0.014  1.00  0.00     0.047 A 
ATOM      7  C   UNL     1       3.637  -2.033  -2.238  1.00  0.00     0.224 A 
ATOM      8  C   UNL     1       2.222  -1.660  -0.492  1.00  0.00     0.080 A 
ATOM      9  C   UNL     1       2.723  -0.008   1.222  1.00  0.00     0.064 A 
ATOM     10  N   UNL     1       2.498  -2.339  -1.610  1.00  0.00    -0.236 NA
ATOM     11  C   UNL     1       1.049  -1.956   0.191  1.00  0.00     0.079 A 
ATOM     12  C   UNL     1       1.545  -0.323   1.901  1.00  0.00     0.161 A 
BRANCH   4  13
ATOM     13  N   UNL     1       5.111   0.623  -0.324  1.00  0.00    -0.340 N 
ATOM     14  H   UNL     1       4.574   1.482  -0.246  1.00  0.00     0.168 HD
BRANCH  13  15
ATOM     15  C   UNL     1       6.435   0.870  -0.751  1.00  0.00     0.041 A 
ATOM     16  Cl  UNL     1       8.829   4.080  -0.838  1.00  0.00    -0.083 Cl
ATOM     17  C   UNL     1       8.286   2.445  -0.988  1.00  0.00     0.061 A 
ATOM     18  C   UNL     1       9.122   1.417  -1.431  1.00  0.00     0.059 A 
ATOM     19  C   UNL     1       6.958   2.167  -0.640  1.00  0.00     0.048 A 
ATOM     20  Cl  UNL     1      10.769   1.683  -1.876  1.00  0.00    -0.083 Cl
ATOM     21  C   UNL     1       8.626   0.116  -1.511  1.00  0.00     0.024 A 
ATOM     22  C   UNL     1       7.298  -0.153  -1.161  1.00  0.00     0.028 A 
ENDBRANCH  13  15
ENDBRANCH   4  13
BRANCH  12  23
ATOM     23  O   UNL     1       1.138   0.270   3.070  1.00  0.00    -0.493 OA
ATOM     24  C   UNL     1       2.013   1.208   3.680  1.00  0.00     0.278 C 
ENDBRANCH  12  23
ENDBRANCH   2   3
ENDBRANCH   1   2
BRANCH   1  25
ATOM     25  C   UNL     1      -2.478  -1.787   0.698  1.00  0.00     0.170 C 
BRANCH  25  26
ATOM     26  O   UNL     1      -1.933  -1.650  -0.628  1.00  0.00    -0.372 OA
BRANCH  26  27
ATOM     27  C   UNL     1      -2.877  -1.042  -1.518  1.00  0.00     0.176 CG0
ATOM     28  G   UNL     1      -3.351   0.324  -0.998  1.00  0.00     0.000 G0
ENDBRANCH  26  27
ENDBRANCH  25  26
BRANCH  25  29
ATOM     29  C   UNL     1      -2.941  -0.415   1.245  1.00  0.00     0.120 C 
BRANCH  29  30
ATOM     30  N   UNL     1      -3.912   0.285   0.370  1.00  0.00    -0.294 NA
BRANCH  30  31
ATOM     31  C   UNL     1      -5.244  -0.336   0.433  1.00  0.00     0.120 C 
BRANCH  31  32
ATOM     32  C   UNL     1      -6.320   0.478  -0.256  1.00  0.00    -0.034 A 
ATOM     33  C   UNL     1      -6.552   1.812   0.113  1.00  0.00     0.005 A 
ATOM     34  C   UNL     1      -7.119  -0.096  -1.256  1.00  0.00     0.005 A 
ATOM     35  C   UNL     1      -7.553   2.558  -0.511  1.00  0.00     0.000 A 
ATOM     36  C   UNL     1      -8.120   0.652  -1.879  1.00  0.00     0.000 A 
ATOM     37  C   UNL     1      -8.336   1.978  -1.507  1.00  0.00     0.000 A 
ENDBRANCH  31  32
ENDBRANCH  30  31
BRANCH  30  38
ATOM     38  C   UNL     1      -3.351   0.324  -0.998  1.00  0.00     0.113 CG0
ATOM     39  G   UNL     1      -2.877  -1.042  -1.518  1.00  0.00     0.000 G0
ENDBRANCH  30  38
ENDBRANCH  29  30
ENDBRANCH  25  29
ENDBRANCH   1  25
TORSDOF 8
