REMARK SMILES C[C@@H]1CN(Cc2ccc(NC(=O)/C=C/c3cnccc3-c3cnn(C)c3)cc2)C[C@H](C)O1
REMARK SMILES IDX 5 1 6 2 9 3 8 4 27 5 7 6 28 7 10 8 12 9 11 10 13 12 14 13
REMARK SMILES IDX 15 14 20 15 16 16 19 17 17 18 18 19 21 20 22 21 26 22 23 23
REMARK SMILES IDX 24 24 25 25 4 26 29 27 30 28 31 29 32 30 2 31 1 32 3 34
REMARK H PARENT 10 11
REMARK Flexibility Score: 80.00
ROOT
ATOM      1  C   UNL     1      -4.743  -1.277   0.407  1.00  0.00     0.120 C 
ENDROOT
BRANCH   1   2
ATOM      2  C   UNL     1      -3.273  -1.078   0.712  1.00  0.00    -0.034 A 
ATOM      3  C   UNL     1      -0.529  -0.738   1.294  1.00  0.00     0.041 A 
ATOM      4  C   UNL     1      -1.510  -0.286   2.185  1.00  0.00     0.026 A 
ATOM      5  C   UNL     1      -0.931  -1.359   0.111  1.00  0.00     0.026 A 
ATOM      6  C   UNL     1      -2.868  -0.456   1.899  1.00  0.00     0.007 A 
ATOM      7  C   UNL     1      -2.291  -1.528  -0.178  1.00  0.00     0.007 A 
BRANCH   3   8
ATOM      8  N   UNL     1       0.819  -0.535   1.664  1.00  0.00    -0.323 N 
ATOM      9  O   UNL     1       1.989  -1.480  -0.123  1.00  0.00    -0.270 OA
ATOM     10  C   UNL     1       1.945  -0.910   0.958  1.00  0.00     0.248 C 
ATOM     11  H   UNL     1       0.955  -0.065   2.548  1.00  0.00     0.170 HD
BRANCH  10  12
ATOM     12  C   UNL     1       3.198  -0.544   1.683  1.00  0.00     0.072 C 
ATOM     13  C   UNL     1       4.393  -0.826   1.139  1.00  0.00     0.016 C 
BRANCH  13  14
ATOM     14  C   UNL     1       5.672  -0.511   1.794  1.00  0.00     0.001 A 
ATOM     15  C   UNL     1       6.746   0.107   1.129  1.00  0.00    -0.005 A 
ATOM     16  C   UNL     1       5.894  -0.901   3.116  1.00  0.00     0.119 A 
ATOM     17  C   UNL     1       7.948   0.317   1.820  1.00  0.00     0.029 A 
ATOM     18  N   UNL     1       7.043  -0.700   3.804  1.00  0.00    -0.264 NA
ATOM     19  C   UNL     1       8.044  -0.095   3.137  1.00  0.00     0.111 A 
BRANCH  15  20
ATOM     20  C   UNL     1       6.653   0.565  -0.246  1.00  0.00     0.020 A 
ATOM     21  C   UNL     1       5.708   1.396  -0.888  1.00  0.00     0.143 A 
ATOM     22  C   UNL     1       7.557   0.249  -1.239  1.00  0.00     0.117 A 
ATOM     23  N   UNL     1       5.995   1.596  -2.178  1.00  0.00    -0.181 NA
ATOM     24  N   UNL     1       7.114   0.875  -2.368  1.00  0.00    -0.275 N 
ATOM     25  C   UNL     1       7.716   0.832  -3.679  1.00  0.00     0.173 C 
ENDBRANCH  15  20
ENDBRANCH  13  14
ENDBRANCH  10  12
ENDBRANCH   3   8
ENDBRANCH   1   2
BRANCH   1  26
ATOM     26  N   UNL     1      -5.498  -0.019   0.350  1.00  0.00    -0.294 NA
BRANCH  26  27
ATOM     27  C   UNL     1      -6.956  -0.232   0.310  1.00  0.00     0.116 C 
BRANCH  27  28
ATOM     28  C   UNL     1      -7.629  -0.095  -1.076  1.00  0.00     0.129 C 
ATOM     29  C   UNL     1      -7.362  -1.284  -1.995  1.00  0.00     0.040 C 
BRANCH  28  30
ATOM     30  O   UNL     1      -7.277   1.105  -1.784  1.00  0.00    -0.373 OA
BRANCH  30  31
ATOM     31  C   UNL     1      -6.168   1.819  -1.212  1.00  0.00     0.129 CG0
ATOM     32  C   UNL     1      -5.657   2.784  -2.274  1.00  0.00     0.040 C 
ATOM     33  G   UNL     1      -5.055   0.854  -0.757  1.00  0.00     0.000 G0
ENDBRANCH  30  31
ENDBRANCH  28  30
ENDBRANCH  27  28
ENDBRANCH  26  27
BRANCH  26  34
ATOM     34  C   UNL     1      -5.055   0.854  -0.757  1.00  0.00     0.116 CG0
ATOM     35  G   UNL     1      -6.168   1.819  -1.212  1.00  0.00     0.000 G0
ENDBRANCH  26  34
ENDBRANCH   1  26
TORSDOF 6
