REMARK SMILES COc1cc(N)c(Cl)cc1C(=O)NC[C@H]1CN(Cc2ccc(Br)cc2)CCO1
REMARK SMILES IDX 15 1 16 2 17 3 18 4 19 5 23 6 22 7 21 8 24 9 20 10 25 11
REMARK SMILES IDX 26 12 28 14 27 15 14 17 13 18 11 19 12 21 10 22 3 23 9 24
REMARK SMILES IDX 4 25 7 26 5 27 8 28 2 29 1 30 6 31
REMARK H PARENT 13 20 6 32 6 33
REMARK Flexibility Score: 90.00
ROOT
ATOM      1  C   UNL     1      -0.501  -0.521  -1.033  1.00  0.00     0.151 C 
ENDROOT
BRANCH   1   2
ATOM      2  C   UNL     1      -2.022  -0.611  -1.287  1.00  0.00     0.118 C 
BRANCH   2   3
ATOM      3  N   UNL     1      -2.588   0.684  -1.731  1.00  0.00    -0.294 NA
BRANCH   3   4
ATOM      4  C   UNL     1      -4.030   0.577  -2.005  1.00  0.00     0.120 C 
BRANCH   4   5
ATOM      5  C   UNL     1      -4.858   0.396  -0.749  1.00  0.00    -0.034 A 
ATOM      6  Br  UNL     1      -7.426  -0.145   3.140  1.00  0.00    -0.051 Br
ATOM      7  C   UNL     1      -6.391   0.074   1.572  1.00  0.00     0.017 A 
ATOM      8  C   UNL     1      -5.584   1.200   1.429  1.00  0.00     0.016 A 
ATOM      9  C   UNL     1      -6.442  -0.892   0.570  1.00  0.00     0.016 A 
ATOM     10  C   UNL     1      -4.821   1.360   0.271  1.00  0.00     0.006 A 
ATOM     11  C   UNL     1      -5.678  -0.731  -0.589  1.00  0.00     0.006 A 
ENDBRANCH   4   5
ENDBRANCH   3   4
BRANCH   3  12
ATOM     12  C   UNL     1      -1.865   1.107  -2.946  1.00  0.00     0.113 CG0
ATOM     13  G   UNL     1      -0.354   1.204  -2.689  1.00  0.00     0.000 G0
ENDBRANCH   3  12
ENDBRANCH   2   3
ENDBRANCH   1   2
BRANCH   1  14
ATOM     14  O   UNL     1       0.189  -0.029  -2.206  1.00  0.00    -0.374 OA
BRANCH  14  15
ATOM     15  C   UNL     1      -0.354   1.204  -2.689  1.00  0.00     0.176 CG0
ATOM     16  G   UNL     1      -1.865   1.107  -2.946  1.00  0.00     0.000 G0
ENDBRANCH  14  15
ENDBRANCH   1  14
BRANCH   1  17
ATOM     17  C   UNL     1      -0.176   0.310   0.224  1.00  0.00     0.149 C 
BRANCH  17  18
ATOM     18  N   UNL     1       1.241   0.271   0.547  1.00  0.00    -0.349 N 
ATOM     19  C   UNL     1       1.804  -0.792   1.213  1.00  0.00     0.255 C 
ATOM     20  H   UNL     1       1.862   0.874   0.018  1.00  0.00     0.163 HD
ATOM     21  O   UNL     1       1.126  -1.699   1.690  1.00  0.00    -0.269 OA
BRANCH  19  22
ATOM     22  C   UNL     1       3.299  -0.831   1.328  1.00  0.00     0.083 A 
ATOM     23  C   UNL     1       4.167   0.180   0.876  1.00  0.00     0.133 A 
ATOM     24  C   UNL     1       3.844  -1.959   1.965  1.00  0.00     0.040 A 
ATOM     25  C   UNL     1       5.557   0.018   1.010  1.00  0.00     0.074 A 
ATOM     26  C   UNL     1       5.224  -2.092   2.117  1.00  0.00     0.065 A 
ATOM     27  C   UNL     1       6.103  -1.131   1.595  1.00  0.00     0.054 A 
ATOM     28  Cl  UNL     1       5.834  -3.495   2.924  1.00  0.00    -0.082 Cl
BRANCH  23  29
ATOM     29  O   UNL     1       3.642   1.290   0.260  1.00  0.00    -0.496 OA
ATOM     30  C   UNL     1       4.255   2.524   0.635  1.00  0.00     0.278 C 
ENDBRANCH  23  29
BRANCH  27  31
ATOM     31  N   UNL     1       7.490  -1.187   1.826  1.00  0.00    -0.397 N 
ATOM     32  H   UNL     1       8.057  -0.723   1.124  1.00  0.00     0.156 HD
ATOM     33  H   UNL     1       7.815  -2.130   2.034  1.00  0.00     0.156 HD
ENDBRANCH  27  31
ENDBRANCH  19  22
ENDBRANCH  17  18
ENDBRANCH   1  17
TORSDOF 7
