REMARK SMILES COc1cc(SC)ccc1C(=O)N1CC(C)OC(C)C1
REMARK SMILES IDX 20 1 13 2 11 3 12 4 10 5 5 6 4 7 8 8 3 9 9 10 6 11 7 12 2 13
REMARK SMILES IDX 1 14 14 15 18 17 19 18 17 19 15 20 16 21
REMARK H PARENT
REMARK Flexibility Score: 80.00
ROOT
ATOM      1  C   UNL     1      -2.512  -1.564  -0.557  1.00  0.00     0.151 C 
ENDROOT
BRANCH   1   2
ATOM      2  N   UNL     1      -1.201  -0.932  -0.402  1.00  0.00    -0.333 N 
ATOM      3  C   UNL     1      -0.065  -1.730  -0.381  1.00  0.00     0.257 C 
ATOM      4  O   UNL     1      -0.086  -2.953  -0.504  1.00  0.00    -0.269 OA
BRANCH   3   5
ATOM      5  C   UNL     1       1.254  -1.076  -0.277  1.00  0.00     0.082 A 
ATOM      6  C   UNL     1       3.785   0.094  -0.188  1.00  0.00     0.011 A 
ATOM      7  C   UNL     1       3.025  -0.041   0.985  1.00  0.00     0.062 A 
ATOM      8  C   UNL     1       3.282  -0.393  -1.399  1.00  0.00     0.016 A 
ATOM      9  C   UNL     1       1.757  -0.634   0.955  1.00  0.00     0.132 A 
ATOM     10  C   UNL     1       2.016  -0.977  -1.446  1.00  0.00     0.019 A 
BRANCH   6  11
ATOM     11  S   UNL     1       5.402   0.843  -0.074  1.00  0.00    -0.129 SA
ATOM     12  C   UNL     1       5.290   2.077  -1.398  1.00  0.00     0.091 C 
ENDBRANCH   6  11
BRANCH   9  13
ATOM     13  O   UNL     1       0.948  -0.787   2.049  1.00  0.00    -0.496 OA
ATOM     14  C   UNL     1       1.567  -0.696   3.327  1.00  0.00     0.278 C 
ENDBRANCH   9  13
ENDBRANCH   3   5
BRANCH   2  15
ATOM     15  C   UNL     1      -1.210   0.534  -0.346  1.00  0.00     0.151 CG0
ATOM     16  G   UNL     1      -2.578   1.058   0.124  1.00  0.00     0.000 G0
ENDBRANCH   2  15
ENDBRANCH   1   2
BRANCH   1  17
ATOM     17  C   UNL     1      -3.471  -0.649  -1.338  1.00  0.00     0.135 C 
ATOM     18  C   UNL     1      -4.843  -1.289  -1.492  1.00  0.00     0.040 C 
BRANCH  17  19
ATOM     19  O   UNL     1      -3.659   0.641  -0.726  1.00  0.00    -0.372 OA
BRANCH  19  20
ATOM     20  C   UNL     1      -2.578   1.058   0.124  1.00  0.00     0.135 CG0
ATOM     21  C   UNL     1      -2.596   2.579   0.178  1.00  0.00     0.040 C 
ATOM     22  G   UNL     1      -1.210   0.534  -0.346  1.00  0.00     0.000 G0
ENDBRANCH  19  20
ENDBRANCH  17  19
ENDBRANCH   1  17
TORSDOF 3
