REMARK SMILES c1ccc(CN2CCO[C@@H]3CNC[C@@H]32)cc1
REMARK SMILES IDX 10 1 14 2 11 3 13 4 12 5 9 7 8 8 6 10 7 11 5 13 4 14 3 15
REMARK SMILES IDX 15 16 2 17 16 18 1 19
REMARK H PARENT 12 6
REMARK Flexibility Score: 80.00
ROOT
ATOM      1  C   UNL     1      -2.547   0.440   1.293  1.00  0.00     0.150 C 
ATOM      2  C   UNL     1      -1.590   0.782   0.125  1.00  0.00     0.101 C 
ATOM      3  C   UNL     1      -3.912   0.217   0.621  1.00  0.00     0.114 C 
ATOM      4  C   UNL     1      -2.378   0.345  -1.121  1.00  0.00     0.103 C 
ATOM      5  N   UNL     1      -3.785   0.615  -0.793  1.00  0.00    -0.312 NA
ATOM      6  H   UNL     1      -3.946   1.622  -0.858  1.00  0.00     0.122 HD
ENDROOT
BRANCH   1   7
ATOM      7  O   UNL     1      -2.159  -0.690   2.086  1.00  0.00    -0.374 OA
BRANCH   7   8
ATOM      8  C   UNL     1      -1.491  -1.691   1.321  1.00  0.00     0.176 CG0
ATOM      9  G   UNL     1      -0.200  -1.159   0.671  1.00  0.00     0.000 G0
ENDBRANCH   7   8
ENDBRANCH   1   7
BRANCH   2  10
ATOM     10  N   UNL     1      -0.230   0.262   0.289  1.00  0.00    -0.290 NA
BRANCH  10  11
ATOM     11  C   UNL     1      -0.200  -1.159   0.671  1.00  0.00     0.114 CG0
ATOM     12  G   UNL     1      -1.491  -1.691   1.321  1.00  0.00     0.000 G0
ENDBRANCH  10  11
BRANCH  10  13
ATOM     13  C   UNL     1       0.655   0.577  -0.837  1.00  0.00     0.120 C 
BRANCH  13  14
ATOM     14  C   UNL     1       2.121   0.353  -0.530  1.00  0.00    -0.034 A 
ATOM     15  C   UNL     1       2.896  -0.504  -1.324  1.00  0.00     0.005 A 
ATOM     16  C   UNL     1       2.733   1.018   0.544  1.00  0.00     0.005 A 
ATOM     17  C   UNL     1       4.251  -0.696  -1.046  1.00  0.00     0.000 A 
ATOM     18  C   UNL     1       4.087   0.824   0.821  1.00  0.00     0.000 A 
ATOM     19  C   UNL     1       4.845  -0.033   0.026  1.00  0.00     0.000 A 
ENDBRANCH  13  14
ENDBRANCH  10  13
ENDBRANCH   2  10
TORSDOF 2
