REMARK SMILES Cc1cc(C)n(C[C@H]2CN(Cc3cccc(C#N)c3)CCO2)n1
REMARK SMILES IDX 9 1 8 2 22 3 21 4 7 6 6 7 23 8 4 9 2 10 3 11 5 12 1 13 10 14
REMARK SMILES IDX 20 15 11 17 12 18 19 19 13 20 16 21 14 22 15 23 17 24 18 25
REMARK H PARENT
REMARK Flexibility Score: 90.00
ROOT
ATOM      1  C   UNL     1       0.637   0.000  -0.785  1.00  0.00     0.119 C 
ENDROOT
BRANCH   1   2
ATOM      2  C   UNL     1      -0.814  -0.232  -0.301  1.00  0.00     0.153 C 
BRANCH   2   3
ATOM      3  O   UNL     1      -0.831  -0.826   1.013  1.00  0.00    -0.374 OA
BRANCH   3   4
ATOM      4  C   UNL     1       0.299  -1.662   1.293  1.00  0.00     0.176 CG0
ATOM      5  G   UNL     1       0.924  -2.282   0.035  1.00  0.00     0.000 G0
ENDBRANCH   3   4
ENDBRANCH   2   3
BRANCH   2   6
ATOM      6  C   UNL     1      -1.573   1.100  -0.261  1.00  0.00     0.177 C 
BRANCH   6   7
ATOM      7  N   UNL     1      -3.014   0.931  -0.389  1.00  0.00    -0.267 N 
ATOM      8  N   UNL     1      -3.790   1.067   0.703  1.00  0.00    -0.178 NA
ATOM      9  C   UNL     1      -3.737   0.737  -1.543  1.00  0.00     0.036 A 
ATOM     10  C   UNL     1      -5.035   0.887   0.252  1.00  0.00     0.060 A 
ATOM     11  C   UNL     1      -5.056   0.681  -1.144  1.00  0.00     0.048 A 
ATOM     12  C   UNL     1      -3.138   0.620  -2.895  1.00  0.00     0.066 C 
ATOM     13  C   UNL     1      -6.182   0.934   1.188  1.00  0.00     0.069 C 
ENDBRANCH   6   7
ENDBRANCH   2   6
ENDBRANCH   1   2
BRANCH   1  14
ATOM     14  N   UNL     1       1.350  -1.276  -0.948  1.00  0.00    -0.294 NA
BRANCH  14  15
ATOM     15  C   UNL     1       0.924  -2.282   0.035  1.00  0.00     0.113 CG0
ATOM     16  G   UNL     1       0.299  -1.662   1.293  1.00  0.00     0.000 G0
ENDBRANCH  14  15
BRANCH  14  17
ATOM     17  C   UNL     1       2.795  -1.160  -1.155  1.00  0.00     0.120 C 
BRANCH  17  18
ATOM     18  C   UNL     1       3.610  -0.621   0.003  1.00  0.00    -0.033 A 
ATOM     19  C   UNL     1       3.875   0.754   0.110  1.00  0.00     0.024 A 
ATOM     20  C   UNL     1       4.128  -1.482   0.982  1.00  0.00     0.005 A 
ATOM     21  C   UNL     1       4.625   1.259   1.181  1.00  0.00     0.052 A 
ATOM     22  C   UNL     1       4.876  -0.982   2.051  1.00  0.00     0.002 A 
ATOM     23  C   UNL     1       5.122   0.387   2.152  1.00  0.00     0.019 A 
BRANCH  21  24
ATOM     24  C   UNL     1       4.881   2.666   1.276  1.00  0.00     0.099 C 
ATOM     25  N   UNL     1       5.086   3.806   1.347  1.00  0.00    -0.192 NA
ENDBRANCH  21  24
ENDBRANCH  17  18
ENDBRANCH  14  17
ENDBRANCH   1  14
TORSDOF 5
