REMARK SMILES CC(C)CN(Cc1ccc2c(c1)OCCCO2)C(=O)[C@@H]1CN(Cc2ccccc2[N+](=O)[O-])CCO1
REMARK SMILES IDX 18 1 19 2 20 3 21 4 22 5 23 6 24 7 29 8 28 9 25 10 27 11
REMARK SMILES IDX 26 12 30 13 31 14 32 15 33 16 35 18 34 19 5 21 6 22 7 23
REMARK SMILES IDX 12 24 8 25 11 26 9 27 10 28 13 29 14 30 15 31 17 33 16 34
REMARK SMILES IDX 4 36 2 37 1 38 3 39
REMARK H PARENT
REMARK Flexibility Score: 180.00
ROOT
ATOM      1  C   UNL     1       0.288  -0.671   1.472  1.00  0.00     0.253 C 
ATOM      2  O   UNL     1       0.489   0.069   2.443  1.00  0.00    -0.272 OA
ENDROOT
BRANCH   1   3
ATOM      3  C   UNL     1      -1.071  -0.641   0.740  1.00  0.00     0.221 C 
BRANCH   3   4
ATOM      4  C   UNL     1      -1.972   0.463   1.339  1.00  0.00     0.127 C 
BRANCH   4   5
ATOM      5  N   UNL     1      -3.299   0.508   0.673  1.00  0.00    -0.293 NA
BRANCH   5   6
ATOM      6  C   UNL     1      -4.127   1.561   1.273  1.00  0.00     0.127 C 
BRANCH   6   7
ATOM      7  C   UNL     1      -5.380   1.843   0.472  1.00  0.00     0.044 A 
ATOM      8  C   UNL     1      -5.358   2.193  -0.891  1.00  0.00     0.273 A 
ATOM      9  C   UNL     1      -6.536   2.425  -1.616  1.00  0.00     0.086 A 
ATOM     10  C   UNL     1      -6.635   1.756   1.099  1.00  0.00     0.012 A 
ATOM     11  C   UNL     1      -7.766   2.325  -0.969  1.00  0.00     0.007 A 
ATOM     12  C   UNL     1      -7.814   1.994   0.385  1.00  0.00     0.001 A 
BRANCH   8  13
ATOM     13  N   UNL     1      -4.098   2.333  -1.606  1.00  0.00     0.063 N 
ATOM     14  O   UNL     1      -3.314   3.208  -1.211  1.00  0.00    -0.258 OA
ATOM     15  O   UNL     1      -3.932   1.610  -2.600  1.00  0.00    -0.258 OA
ENDBRANCH   8  13
ENDBRANCH   6   7
ENDBRANCH   5   6
BRANCH   5  16
ATOM     16  C   UNL     1      -3.916  -0.830   0.773  1.00  0.00     0.113 CG0
ATOM     17  G   UNL     1      -2.985  -1.899   0.179  1.00  0.00     0.000 G0
ENDBRANCH   5  16
ENDBRANCH   4   5
ENDBRANCH   3   4
BRANCH   3  18
ATOM     18  O   UNL     1      -1.720  -1.919   0.850  1.00  0.00    -0.366 OA
BRANCH  18  19
ATOM     19  C   UNL     1      -2.985  -1.899   0.179  1.00  0.00     0.177 CG0
ATOM     20  G   UNL     1      -3.916  -0.830   0.773  1.00  0.00     0.000 G0
ENDBRANCH  18  19
ENDBRANCH   3  18
ENDBRANCH   1   3
BRANCH   1  21
ATOM     21  N   UNL     1       1.280  -1.539   1.001  1.00  0.00    -0.336 N 
BRANCH  21  22
ATOM     22  C   UNL     1       2.587  -1.486   1.665  1.00  0.00     0.155 C 
BRANCH  22  23
ATOM     23  C   UNL     1       3.601  -0.677   0.889  1.00  0.00    -0.025 A 
ATOM     24  C   UNL     1       3.538   0.725   0.893  1.00  0.00     0.056 A 
ATOM     25  C   UNL     1       4.597  -1.307   0.132  1.00  0.00     0.009 A 
ATOM     26  C   UNL     1       4.445   1.486   0.149  1.00  0.00     0.161 A 
ATOM     27  C   UNL     1       5.521  -0.550  -0.590  1.00  0.00     0.051 A 
ATOM     28  C   UNL     1       5.468   0.846  -0.564  1.00  0.00     0.161 A 
BRANCH  26  29
ATOM     29  O   UNL     1       4.239   2.843   0.198  1.00  0.00    -0.490 OA
BRANCH  29  30
ATOM     30  C   UNL     1       4.518   3.498  -1.040  1.00  0.00     0.233 C 
BRANCH  30  31
ATOM     31  C   UNL     1       5.991   3.858  -1.141  1.00  0.00     0.083 CG1
ATOM     32  G   UNL     1       6.883   2.710  -0.700  1.00  0.00     0.000 G1
ENDBRANCH  30  31
ENDBRANCH  29  30
ENDBRANCH  26  29
BRANCH  28  33
ATOM     33  O   UNL     1       6.458   1.475  -1.278  1.00  0.00    -0.490 OA
BRANCH  33  34
ATOM     34  C   UNL     1       6.883   2.710  -0.700  1.00  0.00     0.233 CG1
ATOM     35  G   UNL     1       5.991   3.858  -1.141  1.00  0.00     0.000 G1
ENDBRANCH  33  34
ENDBRANCH  28  33
ENDBRANCH  22  23
ENDBRANCH  21  22
BRANCH  21  36
ATOM     36  C   UNL     1       1.170  -2.323  -0.240  1.00  0.00     0.123 C 
BRANCH  36  37
ATOM     37  C   UNL     1       1.450  -3.830  -0.076  1.00  0.00     0.002 C 
ATOM     38  C   UNL     1       1.414  -4.517  -1.444  1.00  0.00     0.009 C 
ATOM     39  C   UNL     1       0.447  -4.495   0.867  1.00  0.00     0.009 C 
ENDBRANCH  36  37
ENDBRANCH  21  36
ENDBRANCH   1  21
TORSDOF 9
