REMARK SMILES COCC(=O)N1CCC(Oc2ccc(C(=O)N3C[C@@H](C)O[C@@H](C)C3)cc2)CC1
REMARK SMILES IDX 14 1 13 2 25 3 12 4 26 5 11 6 15 7 16 8 17 9 24 10 18 12
REMARK SMILES IDX 19 13 20 14 21 15 22 16 23 17 10 19 9 20 8 21 27 23 28 24
REMARK SMILES IDX 6 25 4 26 5 27 7 28 3 30 2 31 1 32
REMARK H PARENT
REMARK Flexibility Score: 160.00
ROOT
ATOM      1  C   UNL     1      -2.435   0.928   0.367  1.00  0.00     0.040 A 
ATOM      2  C   UNL     1      -1.463   1.600  -0.379  1.00  0.00     0.017 A 
ATOM      3  C   UNL     1      -2.103  -0.239   1.061  1.00  0.00     0.017 A 
ATOM      4  C   UNL     1      -0.161   1.096  -0.449  1.00  0.00     0.047 A 
ATOM      5  C   UNL     1      -0.804  -0.744   0.979  1.00  0.00     0.047 A 
ATOM      6  C   UNL     1       0.172  -0.072   0.240  1.00  0.00     0.119 A 
ENDROOT
BRANCH   1   7
ATOM      7  C   UNL     1      -3.788   1.522   0.470  1.00  0.00     0.254 C 
ATOM      8  O   UNL     1      -3.868   2.709   0.777  1.00  0.00    -0.269 OA
BRANCH   7   9
ATOM      9  N   UNL     1      -4.899   0.727   0.218  1.00  0.00    -0.333 N 
BRANCH   9  10
ATOM     10  C   UNL     1      -6.226   1.315   0.394  1.00  0.00     0.151 CG0
ATOM     11  G   UNL     1      -7.317   0.250   0.612  1.00  0.00     0.000 G0
ENDBRANCH   9  10
BRANCH   9  12
ATOM     12  C   UNL     1      -4.866  -0.553  -0.500  1.00  0.00     0.151 C 
BRANCH  12  13
ATOM     13  C   UNL     1      -6.187  -0.814  -1.245  1.00  0.00     0.135 C 
ATOM     14  C   UNL     1      -6.159  -2.158  -1.960  1.00  0.00     0.040 C 
BRANCH  13  15
ATOM     15  O   UNL     1      -7.306  -0.825  -0.347  1.00  0.00    -0.372 OA
BRANCH  15  16
ATOM     16  C   UNL     1      -7.317   0.250   0.612  1.00  0.00     0.135 CG0
ATOM     17  C   UNL     1      -7.235  -0.373   2.004  1.00  0.00     0.040 C 
ATOM     18  G   UNL     1      -6.226   1.315   0.394  1.00  0.00     0.000 G0
ENDBRANCH  15  16
ENDBRANCH  13  15
ENDBRANCH  12  13
ENDBRANCH   9  12
ENDBRANCH   7   9
ENDBRANCH   1   7
BRANCH   6  19
ATOM     19  O   UNL     1       1.409  -0.653   0.239  1.00  0.00    -0.490 OA
BRANCH  19  20
ATOM     20  C   UNL     1       2.541   0.227   0.173  1.00  0.00     0.176 C 
BRANCH  20  21
ATOM     21  C   UNL     1       3.568  -0.306   1.176  1.00  0.00     0.067 CG1
ATOM     22  G   UNL     1       4.955   0.242   0.890  1.00  0.00     0.000 G1
ENDBRANCH  20  21
BRANCH  20  23
ATOM     23  C   UNL     1       3.088   0.271  -1.261  1.00  0.00     0.067 C 
BRANCH  23  24
ATOM     24  C   UNL     1       4.384  -0.516  -1.417  1.00  0.00     0.123 C 
BRANCH  24  25
ATOM     25  N   UNL     1       5.399  -0.058  -0.470  1.00  0.00    -0.340 N 
ATOM     26  C   UNL     1       6.719   0.074  -0.904  1.00  0.00     0.248 C 
ATOM     27  O   UNL     1       7.055  -0.217  -2.051  1.00  0.00    -0.272 OA
BRANCH  25  28
ATOM     28  C   UNL     1       4.955   0.242   0.890  1.00  0.00     0.123 CG1
ATOM     29  G   UNL     1       3.568  -0.306   1.176  1.00  0.00     0.000 G1
ENDBRANCH  25  28
BRANCH  26  30
ATOM     30  C   UNL     1       7.739   0.601   0.128  1.00  0.00     0.259 C 
BRANCH  30  31
ATOM     31  O   UNL     1       9.043   0.908  -0.337  1.00  0.00    -0.375 OA
ATOM     32  C   UNL     1       9.823  -0.250  -0.605  1.00  0.00     0.195 C 
ENDBRANCH  30  31
ENDBRANCH  26  30
ENDBRANCH  24  25
ENDBRANCH  23  24
ENDBRANCH  20  23
ENDBRANCH  19  20
ENDBRANCH   6  19
TORSDOF 6
