REMARK SMILES COc1cccc(OC[C@H]2CN(Cc3ccc(Cl)cc3)CCO2)c1OC
REMARK SMILES IDX 10 1 11 2 12 3 13 4 14 5 18 6 17 7 16 8 19 9 15 10 20 11
REMARK SMILES IDX 21 12 23 14 22 15 9 17 8 18 7 19 24 20 6 21 3 22 5 23 4 24
REMARK SMILES IDX 25 25 26 26 2 27 1 28
REMARK H PARENT
REMARK Flexibility Score: 90.00
ROOT
ATOM      1  C   UNL     1       0.441  -0.597  -1.420  1.00  0.00     0.170 C 
ENDROOT
BRANCH   1   2
ATOM      2  C   UNL     1       1.586   0.439  -1.404  1.00  0.00     0.120 C 
BRANCH   2   3
ATOM      3  N   UNL     1       2.855  -0.158  -1.853  1.00  0.00    -0.294 NA
BRANCH   3   4
ATOM      4  C   UNL     1       4.048   0.646  -1.579  1.00  0.00     0.120 C 
BRANCH   4   5
ATOM      5  C   UNL     1       4.499   0.733  -0.133  1.00  0.00    -0.034 A 
ATOM      6  Cl  UNL     1       5.822   0.956   4.190  1.00  0.00    -0.084 Cl
ATOM      7  C   UNL     1       5.324   0.875   2.546  1.00  0.00     0.041 A 
ATOM      8  C   UNL     1       4.400   1.795   2.056  1.00  0.00     0.021 A 
ATOM      9  C   UNL     1       5.851  -0.106   1.710  1.00  0.00     0.021 A 
ATOM     10  C   UNL     1       3.994   1.727   0.720  1.00  0.00     0.006 A 
ATOM     11  C   UNL     1       5.441  -0.175   0.376  1.00  0.00     0.006 A 
ENDBRANCH   4   5
ENDBRANCH   3   4
BRANCH   3  12
ATOM     12  C   UNL     1       2.948  -1.584  -1.509  1.00  0.00     0.113 CG0
ATOM     13  G   UNL     1       2.081  -1.964  -0.299  1.00  0.00     0.000 G0
ENDBRANCH   3  12
ENDBRANCH   2   3
ENDBRANCH   1   2
BRANCH   1  14
ATOM     14  O   UNL     1       0.689  -1.663  -0.473  1.00  0.00    -0.372 OA
BRANCH  14  15
ATOM     15  C   UNL     1       2.081  -1.964  -0.299  1.00  0.00     0.176 CG0
ATOM     16  G   UNL     1       2.948  -1.584  -1.509  1.00  0.00     0.000 G0
ENDBRANCH  14  15
ENDBRANCH   1  14
BRANCH   1  17
ATOM     17  C   UNL     1      -0.894   0.069  -1.061  1.00  0.00     0.263 C 
BRANCH  17  18
ATOM     18  O   UNL     1      -1.967  -0.833  -1.373  1.00  0.00    -0.487 OA
BRANCH  18  19
ATOM     19  C   UNL     1      -2.878  -0.884  -0.350  1.00  0.00     0.165 A 
ATOM     20  C   UNL     1      -3.960   0.003  -0.290  1.00  0.00     0.203 A 
ATOM     21  C   UNL     1      -2.725  -1.887   0.606  1.00  0.00     0.051 A 
ATOM     22  C   UNL     1      -4.921  -0.131   0.729  1.00  0.00     0.164 A 
ATOM     23  C   UNL     1      -3.651  -1.997   1.639  1.00  0.00     0.008 A 
ATOM     24  C   UNL     1      -4.744  -1.124   1.701  1.00  0.00     0.051 A 
BRANCH  20  25
ATOM     25  O   UNL     1      -4.091   0.934  -1.293  1.00  0.00    -0.490 OA
ATOM     26  C   UNL     1      -3.839   2.252  -0.810  1.00  0.00     0.278 C 
ENDBRANCH  20  25
BRANCH  22  27
ATOM     27  O   UNL     1      -5.984   0.735   0.694  1.00  0.00    -0.493 OA
ATOM     28  C   UNL     1      -7.080   0.458   1.557  1.00  0.00     0.278 C 
ENDBRANCH  22  27
ENDBRANCH  18  19
ENDBRANCH  17  18
ENDBRANCH   1  17
TORSDOF 7
