REMARK SMILES C[C@H]1CN(Cc2cccc(-c3nc(-c4cccc(C(F)(F)F)c4)c[nH]3)c2)CCO1
REMARK SMILES IDX 5 1 6 2 10 3 26 4 9 5 8 6 7 7 11 8 13 9 12 10 24 11 25 12
REMARK SMILES IDX 14 14 18 15 23 16 17 17 16 18 15 19 19 20 20 21 21 22 22 23
REMARK SMILES IDX 4 24 3 25 2 26 1 27 29 28 28 29 27 31
REMARK H PARENT 25 13
REMARK Flexibility Score: 80.00
ROOT
ATOM      1  C   UNL     1      -3.318  -0.900  -0.645  1.00  0.00     0.120 C 
ENDROOT
BRANCH   1   2
ATOM      2  C   UNL     1      -1.926  -1.296  -0.194  1.00  0.00    -0.033 A 
ATOM      3  C   UNL     1       0.434  -0.725   0.134  1.00  0.00     0.017 A 
ATOM      4  C   UNL     1      -0.864  -0.375  -0.268  1.00  0.00     0.017 A 
ATOM      5  C   UNL     1       0.658  -2.030   0.592  1.00  0.00     0.012 A 
ATOM      6  C   UNL     1      -0.384  -2.957   0.661  1.00  0.00     0.001 A 
ATOM      7  C   UNL     1      -1.670  -2.592   0.270  1.00  0.00     0.005 A 
BRANCH   3   8
ATOM      8  C   UNL     1       1.554   0.221   0.088  1.00  0.00     0.138 A 
ATOM      9  C   UNL     1       3.537   1.099   0.128  1.00  0.00     0.089 A 
ATOM     10  N   UNL     1       2.833  -0.081   0.227  1.00  0.00    -0.229 NA
ATOM     11  C   UNL     1       2.667   2.147  -0.066  1.00  0.00     0.113 A 
ATOM     12  N   UNL     1       1.421   1.580  -0.084  1.00  0.00    -0.344 N 
ATOM     13  H   UNL     1       0.547   2.073  -0.187  1.00  0.00     0.168 HD
BRANCH   9  14
ATOM     14  C   UNL     1       4.988   1.166   0.227  1.00  0.00     0.002 A 
ATOM     15  C   UNL     1       7.118  -0.004   0.537  1.00  0.00     0.056 A 
ATOM     16  C   UNL     1       5.717  -0.017   0.431  1.00  0.00     0.023 A 
ATOM     17  C   UNL     1       7.795   1.218   0.422  1.00  0.00     0.013 A 
ATOM     18  C   UNL     1       7.084   2.400   0.220  1.00  0.00     0.001 A 
ATOM     19  C   UNL     1       5.690   2.374   0.124  1.00  0.00     0.010 A 
BRANCH  15  20
ATOM     20  C   UNL     1       7.876  -1.293   0.733  1.00  0.00     0.416 C 
ATOM     21  F   UNL     1       7.225  -2.185   1.532  1.00  0.00    -0.166 F 
ATOM     22  F   UNL     1       9.099  -1.112   1.307  1.00  0.00    -0.166 F 
ATOM     23  F   UNL     1       8.110  -1.942  -0.441  1.00  0.00    -0.166 F 
ENDBRANCH  15  20
ENDBRANCH   9  14
ENDBRANCH   3   8
ENDBRANCH   1   2
BRANCH   1  24
ATOM     24  N   UNL     1      -3.789   0.356  -0.035  1.00  0.00    -0.294 NA
BRANCH  24  25
ATOM     25  C   UNL     1      -5.030   0.837  -0.683  1.00  0.00     0.116 C 
BRANCH  25  26
ATOM     26  C   UNL     1      -6.293   0.024  -0.314  1.00  0.00     0.129 C 
ATOM     27  C   UNL     1      -7.540   0.652  -0.923  1.00  0.00     0.040 C 
BRANCH  26  28
ATOM     28  O   UNL     1      -6.475  -0.013   1.109  1.00  0.00    -0.376 OA
BRANCH  28  29
ATOM     29  C   UNL     1      -5.325  -0.567   1.761  1.00  0.00     0.176 CG0
ATOM     30  G   UNL     1      -4.051   0.223   1.418  1.00  0.00     0.000 G0
ENDBRANCH  28  29
ENDBRANCH  26  28
ENDBRANCH  25  26
ENDBRANCH  24  25
BRANCH  24  31
ATOM     31  C   UNL     1      -4.051   0.223   1.418  1.00  0.00     0.113 CG0
ATOM     32  G   UNL     1      -5.325  -0.567   1.761  1.00  0.00     0.000 G0
ENDBRANCH  24  31
ENDBRANCH   1  24
TORSDOF 5
