REMARK SMILES CCn1cc(-c2nc3cc(Br)c(C(=O)N4CCO[C@@H](c5ccc(F)cc5)[C@@H]4CO)cc3n2C)c2ccc(C#N)cc21
REMARK SMILES IDX 15 1 13 2 14 3 12 4 11 5 10 6 9 7 30 8 8 9 31 10 7 11 32 12
REMARK SMILES IDX 6 13 33 14 5 15 34 16 4 17 41 18 35 19 3 20 40 21 36 22
REMARK SMILES IDX 37 23 2 24 1 25 38 26 39 27 27 28 19 29 18 30 17 31 20 33
REMARK SMILES IDX 21 34 26 35 22 36 25 37 23 38 24 39 28 40 29 41 16 43
REMARK H PARENT 29 42
REMARK Flexibility Score: 90.00
ROOT
ATOM      1  N   UNL     1      -3.403   0.433   0.221  1.00  0.00    -0.328 N 
ENDROOT
BRANCH   1   2
ATOM      2  C   UNL     1      -2.668   1.193  -0.678  1.00  0.00     0.255 C 
ATOM      3  O   UNL     1      -3.110   1.616  -1.742  1.00  0.00    -0.269 OA
BRANCH   2   4
ATOM      4  C   UNL     1      -1.256   1.470  -0.370  1.00  0.00     0.056 A 
ATOM      5  Br  UNL     1      -2.125   3.932   0.886  1.00  0.00    -0.050 Br
ATOM      6  C   UNL     1      -0.868   2.634   0.303  1.00  0.00     0.033 A 
ATOM      7  C   UNL     1       0.484   2.868   0.585  1.00  0.00     0.047 A 
ATOM      8  C   UNL     1      -0.317   0.520  -0.808  1.00  0.00     0.043 A 
ATOM      9  C   UNL     1       1.433   1.918   0.175  1.00  0.00     0.090 A 
ATOM     10  C   UNL     1       1.026   0.779  -0.507  1.00  0.00     0.069 A 
ATOM     11  N   UNL     1       2.789   1.923   0.341  1.00  0.00    -0.228 NA
ATOM     12  N   UNL     1       2.203   0.116  -0.789  1.00  0.00    -0.327 N 
ATOM     13  C   UNL     1       3.234   0.787  -0.170  1.00  0.00     0.143 A 
ATOM     14  C   UNL     1       2.301  -0.952  -1.752  1.00  0.00     0.152 C 
BRANCH  13  15
ATOM     15  C   UNL     1       4.754   0.400  -0.040  1.00  0.00     0.043 A 
ATOM     16  C   UNL     1       5.472  -0.823  -0.220  1.00  0.00     0.011 A 
ATOM     17  C   UNL     1       5.668   1.357   0.351  1.00  0.00     0.098 A 
ATOM     18  C   UNL     1       6.833  -0.529  -0.022  1.00  0.00     0.050 A 
ATOM     19  C   UNL     1       5.131  -2.169  -0.478  1.00  0.00     0.012 A 
ATOM     20  N   UNL     1       6.916   0.805   0.320  1.00  0.00    -0.347 N 
ATOM     21  C   UNL     1       7.843  -1.501  -0.155  1.00  0.00     0.046 A 
ATOM     22  C   UNL     1       6.127  -3.147  -0.606  1.00  0.00     0.020 A 
ATOM     23  C   UNL     1       7.471  -2.814  -0.459  1.00  0.00     0.054 A 
BRANCH  20  24
ATOM     24  C   UNL     1       8.133   1.531   0.648  1.00  0.00     0.119 C 
ATOM     25  C   UNL     1       8.841   2.057  -0.587  1.00  0.00     0.027 C 
ENDBRANCH  20  24
BRANCH  23  26
ATOM     26  C   UNL     1       8.478  -3.826  -0.597  1.00  0.00     0.099 C 
ATOM     27  N   UNL     1       9.293  -4.644  -0.711  1.00  0.00    -0.192 NA
ENDBRANCH  23  26
ENDBRANCH  13  15
ENDBRANCH   2   4
ENDBRANCH   1   2
BRANCH   1  28
ATOM     28  C   UNL     1      -4.830   0.149  -0.078  1.00  0.00     0.144 C 
BRANCH  28  29
ATOM     29  C   UNL     1      -5.579  -0.383   1.185  1.00  0.00     0.173 C 
BRANCH  29  30
ATOM     30  O   UNL     1      -5.275   0.420   2.341  1.00  0.00    -0.369 OA
BRANCH  30  31
ATOM     31  C   UNL     1      -3.874   0.506   2.633  1.00  0.00     0.182 CG0
ATOM     32  G   UNL     1      -2.944  -0.021   1.532  1.00  0.00     0.000 G0
ENDBRANCH  30  31
ENDBRANCH  29  30
BRANCH  29  33
ATOM     33  C   UNL     1      -7.090  -0.369   1.015  1.00  0.00    -0.017 A 
ATOM     34  C   UNL     1      -7.789  -1.572   0.820  1.00  0.00     0.009 A 
ATOM     35  C   UNL     1      -7.809   0.839   1.029  1.00  0.00     0.009 A 
ATOM     36  C   UNL     1      -9.173  -1.566   0.645  1.00  0.00     0.039 A 
ATOM     37  C   UNL     1      -9.194   0.843   0.853  1.00  0.00     0.039 A 
ATOM     38  C   UNL     1      -9.863  -0.359   0.663  1.00  0.00     0.123 A 
ATOM     39  F   UNL     1     -11.191  -0.356   0.493  1.00  0.00    -0.207 F 
ENDBRANCH  29  33
ENDBRANCH  28  29
BRANCH  28  40
ATOM     40  C   UNL     1      -4.972  -0.831  -1.263  1.00  0.00     0.184 C 
BRANCH  40  41
ATOM     41  O   UNL     1      -4.528  -2.142  -0.905  1.00  0.00    -0.394 OA
ATOM     42  H   UNL     1      -4.582  -2.679  -1.716  1.00  0.00     0.210 HD
ENDBRANCH  40  41
ENDBRANCH  28  40
ENDBRANCH   1  28
BRANCH   1  43
ATOM     43  C   UNL     1      -2.944  -0.021   1.532  1.00  0.00     0.149 CG0
ATOM     44  G   UNL     1      -3.874   0.506   2.633  1.00  0.00     0.000 G0
ENDBRANCH   1  43
TORSDOF 8
