REMARK SMILES Cc1cc(C)n(C[C@H]2CN(Cc3ccc4c(c3)OCCO4)CCO2)n1
REMARK SMILES IDX 10 1 11 2 12 3 16 4 15 5 17 6 14 7 13 8 18 9 19 10 21 12
REMARK SMILES IDX 20 13 9 15 8 16 24 17 23 18 7 20 6 21 25 22 4 23 2 24 3 25
REMARK SMILES IDX 5 26 1 27 22 28
REMARK H PARENT
REMARK Flexibility Score: 180.00
ROOT
ATOM      1  N   UNL     1      -0.162  -1.540   0.033  1.00  0.00    -0.294 NA
ENDROOT
BRANCH   1   2
ATOM      2  C   UNL     1      -0.311  -0.096  -0.154  1.00  0.00     0.120 C 
BRANCH   2   3
ATOM      3  C   UNL     1      -1.758   0.355  -0.133  1.00  0.00    -0.030 A 
ATOM      4  C   UNL     1      -3.893   0.520   1.015  1.00  0.00     0.161 A 
ATOM      5  C   UNL     1      -4.433   1.201  -0.081  1.00  0.00     0.161 A 
ATOM      6  C   UNL     1      -2.568   0.088   0.984  1.00  0.00     0.055 A 
ATOM      7  C   UNL     1      -3.635   1.488  -1.186  1.00  0.00     0.051 A 
ATOM      8  C   UNL     1      -2.302   1.068  -1.213  1.00  0.00     0.009 A 
BRANCH   4   9
ATOM      9  O   UNL     1      -4.609   0.235   2.150  1.00  0.00    -0.486 OA
BRANCH   9  10
ATOM     10  C   UNL     1      -5.814   1.006   2.212  1.00  0.00     0.271 CG0
ATOM     11  G   UNL     1      -6.531   0.989   0.873  1.00  0.00     0.000 G0
ENDBRANCH   9  10
ENDBRANCH   4   9
BRANCH   5  12
ATOM     12  O   UNL     1      -5.736   1.625  -0.135  1.00  0.00    -0.486 OA
BRANCH  12  13
ATOM     13  C   UNL     1      -6.531   0.989   0.873  1.00  0.00     0.271 CG0
ATOM     14  G   UNL     1      -5.814   1.006   2.212  1.00  0.00     0.000 G0
ENDBRANCH  12  13
ENDBRANCH   5  12
ENDBRANCH   2   3
ENDBRANCH   1   2
BRANCH   1  15
ATOM     15  C   UNL     1       1.210  -1.943   0.400  1.00  0.00     0.119 C 
BRANCH  15  16
ATOM     16  C   UNL     1       2.235  -2.093  -0.755  1.00  0.00     0.153 C 
BRANCH  16  17
ATOM     17  O   UNL     1       1.678  -2.847  -1.858  1.00  0.00    -0.374 OA
BRANCH  17  18
ATOM     18  C   UNL     1       0.394  -2.370  -2.277  1.00  0.00     0.176 CG1
ATOM     19  G   UNL     1      -0.609  -2.344  -1.118  1.00  0.00     0.000 G1
ENDBRANCH  17  18
ENDBRANCH  16  17
BRANCH  16  20
ATOM     20  C   UNL     1       2.872  -0.794  -1.267  1.00  0.00     0.177 C 
BRANCH  20  21
ATOM     21  N   UNL     1       3.506   0.018  -0.248  1.00  0.00    -0.267 N 
ATOM     22  N   UNL     1       4.250  -0.584   0.700  1.00  0.00    -0.178 NA
ATOM     23  C   UNL     1       3.486   1.386  -0.126  1.00  0.00     0.036 A 
ATOM     24  C   UNL     1       4.680   0.416   1.475  1.00  0.00     0.060 A 
ATOM     25  C   UNL     1       4.230   1.666   1.001  1.00  0.00     0.048 A 
ATOM     26  C   UNL     1       2.791   2.301  -1.062  1.00  0.00     0.066 C 
ATOM     27  C   UNL     1       5.535   0.139   2.653  1.00  0.00     0.069 C 
ENDBRANCH  20  21
ENDBRANCH  16  20
ENDBRANCH  15  16
ENDBRANCH   1  15
BRANCH   1  28
ATOM     28  C   UNL     1      -0.609  -2.344  -1.118  1.00  0.00     0.113 CG1
ATOM     29  G   UNL     1       0.394  -2.370  -2.277  1.00  0.00     0.000 G1
ENDBRANCH   1  28
TORSDOF 4
