REMARK SMILES N#Cc1ccc(CN2CC3CN(CCNS(=O)(=O)c4ccc(F)cc4)CC(C2)O3)cc1
REMARK SMILES IDX 27 1 26 3 12 4 13 5 14 6 15 7 16 9 17 10 18 11 19 12 20 13
REMARK SMILES IDX 25 14 21 15 24 16 22 17 23 18 11 19 29 21 10 22 9 24 8 25
REMARK SMILES IDX 28 26 7 28 6 29 5 30 30 31 4 32 31 33 3 34 2 35 1 36
REMARK H PARENT 15 8
REMARK Flexibility Score: 170.00
ROOT
ATOM      1  C   UNL     1       0.723  -0.943   1.749  1.00  0.00     0.146 CG1
ATOM      2  G   UNL     1       2.071  -1.701   1.638  1.00  0.00     0.000 G1
ENDROOT
BRANCH   1   3
ATOM      3  C   UNL     1      -0.257  -1.284   0.578  1.00  0.00     0.118 C 
BRANCH   3   4
ATOM      4  N   UNL     1      -0.881  -0.100  -0.030  1.00  0.00    -0.297 NA
BRANCH   4   5
ATOM      5  C   UNL     1      -1.787  -0.384  -1.151  1.00  0.00     0.101 C 
BRANCH   5   6
ATOM      6  C   UNL     1      -2.985  -1.281  -0.787  1.00  0.00     0.114 C 
BRANCH   6   7
ATOM      7  N   UNL     1      -3.936  -1.331  -1.905  1.00  0.00    -0.210 NA
ATOM      8  H   UNL     1      -3.598  -1.551  -2.843  1.00  0.00     0.141 HD
BRANCH   7   9
ATOM      9  S   UNL     1      -5.469  -1.948  -1.616  1.00  0.00     0.240 S 
ATOM     10  O   UNL     1      -5.361  -2.957  -0.587  1.00  0.00    -0.207 OA
ATOM     11  O   UNL     1      -6.033  -2.241  -2.916  1.00  0.00    -0.207 OA
BRANCH   9  12
ATOM     12  C   UNL     1      -6.316  -0.534  -0.960  1.00  0.00     0.082 A 
ATOM     13  C   UNL     1      -6.508  -0.414   0.422  1.00  0.00     0.025 A 
ATOM     14  C   UNL     1      -6.815   0.434  -1.841  1.00  0.00     0.025 A 
ATOM     15  C   UNL     1      -7.184   0.701   0.925  1.00  0.00     0.040 A 
ATOM     16  C   UNL     1      -7.493   1.543  -1.329  1.00  0.00     0.040 A 
ATOM     17  C   UNL     1      -7.669   1.667   0.047  1.00  0.00     0.123 A 
ATOM     18  F   UNL     1      -8.318   2.732   0.534  1.00  0.00    -0.207 F 
ENDBRANCH   9  12
ENDBRANCH   7   9
ENDBRANCH   6   7
ENDBRANCH   5   6
ENDBRANCH   4   5
BRANCH   4  19
ATOM     19  C   UNL     1       0.124   0.928  -0.389  1.00  0.00     0.118 CG0
ATOM     20  G   UNL     1       1.409   0.881   0.478  1.00  0.00     0.000 G0
ENDBRANCH   4  19
ENDBRANCH   3   4
ENDBRANCH   1   3
BRANCH   1  21
ATOM     21  O   UNL     1       1.025   0.467   1.805  1.00  0.00    -0.370 OA
BRANCH  21  22
ATOM     22  C   UNL     1       1.409   0.881   0.478  1.00  0.00     0.146 CG0
ATOM     23  G   UNL     1       0.124   0.928  -0.389  1.00  0.00     0.000 G0
BRANCH  22  24
ATOM     24  C   UNL     1       2.488  -0.078  -0.121  1.00  0.00     0.118 C 
BRANCH  24  25
ATOM     25  N   UNL     1       3.123  -1.015   0.836  1.00  0.00    -0.294 NA
BRANCH  25  26
ATOM     26  C   UNL     1       2.071  -1.701   1.638  1.00  0.00     0.118 CG1
ATOM     27  G   UNL     1       0.723  -0.943   1.749  1.00  0.00     0.000 G1
ENDBRANCH  25  26
BRANCH  25  28
ATOM     28  C   UNL     1       4.065  -0.308   1.731  1.00  0.00     0.120 C 
BRANCH  28  29
ATOM     29  C   UNL     1       5.330   0.162   1.030  1.00  0.00    -0.034 A 
ATOM     30  C   UNL     1       5.810   1.469   1.229  1.00  0.00     0.006 A 
ATOM     31  C   UNL     1       6.072  -0.719   0.222  1.00  0.00     0.006 A 
ATOM     32  C   UNL     1       6.998   1.889   0.617  1.00  0.00     0.020 A 
ATOM     33  C   UNL     1       7.257  -0.301  -0.391  1.00  0.00     0.020 A 
ATOM     34  C   UNL     1       7.725   1.005  -0.193  1.00  0.00     0.052 A 
BRANCH  34  35
ATOM     35  C   UNL     1       8.945   1.433  -0.813  1.00  0.00     0.099 C 
ATOM     36  N   UNL     1       9.936   1.776  -1.316  1.00  0.00    -0.192 NA
ENDBRANCH  34  35
ENDBRANCH  28  29
ENDBRANCH  25  28
ENDBRANCH  24  25
ENDBRANCH  22  24
ENDBRANCH  21  22
ENDBRANCH   1  21
TORSDOF 8
